/*---------------------------------------------------------------------------*\
  =========                 |
  \\      /  F ield         | OpenFOAM: The Open Source CFD Toolbox
   \\    /   O peration     | Website:  https://openfoam.org
    \\  /    A nd           | Version:  8
     \\/     M anipulation  |
\*---------------------------------------------------------------------------*/
Build  : 8-1c9b5879390b
Exec   : microClimateFoam
Date   : Nov 27 2025
Time   : 14:45:47
Host   : "docker-desktop"
PID    : 268
I/O    : uncollated
Case   : /workspace/cases/heatedCavity
nProcs : 1
sigFpe : Enabling floating point exception trapping (FOAM_SIGFPE).
fileModificationChecking : Monitoring run-time modified files using timeStampMaster (fileModificationSkew 10)
allowSystemOperations : Allowing user-supplied system call operations

// * * * * * * * * * * * * * * * * * * * * * * * * * * * * * * * * * * * * * //
Create time

Create mesh for time = 0

Reading field U

Reading field p

Reading/calculating face flux field phi

Reading transportProperties

Reading field T

Thermal properties:
    rhoRef = 1 kg/m³
    beta   = 0.003 1/K
    TRef   = 300 K
    alpha  = 2.2e-05 m²/s
    g      = (0 -9.81 0) m/s²
time step continuity errors : sum local = 0, global = 0, cumulative = 0

Starting time loop

Time = 0.5

Courant Number mean: 0 max: 0
DICPCG:  Solving for p, Initial residual = 0, Final residual = 0, No Iterations 0
DICPCG:  Solving for p, Initial residual = 0, Final residual = 0, No Iterations 0
time step continuity errors : sum local = 0, global = 0, cumulative = 0
DICPCG:  Solving for p, Initial residual = 0, Final residual = 0, No Iterations 0
DICPCG:  Solving for p, Initial residual = 0, Final residual = 0, No Iterations 0
time step continuity errors : sum local = 0, global = 0, cumulative = 0
DICPCG:  Solving for p, Initial residual = 0, Final residual = 0, No Iterations 0
DICPCG:  Solving for p, Initial residual = 0, Final residual = 0, No Iterations 0
time step continuity errors : sum local = 0, global = 0, cumulative = 0
smoothSolver:  Solving for T, Initial residual = 1, Final residual = 0.00215387, No Iterations 1
ExecutionTime = 0.01 s  ClockTime = 0 s

Time = 1

Courant Number mean: 0 max: 0
DICPCG:  Solving for p, Initial residual = 1, Final residual = 0.008315629, No Iterations 42
DICPCG:  Solving for p, Initial residual = 0.002006126, Final residual = 1.496984e-05, No Iterations 17
time step continuity errors : sum local = 2.832204e-06, global = 1.654361e-22, cumulative = 1.654361e-22
DICPCG:  Solving for p, Initial residual = 1.49993e-05, Final residual = 6.830323e-07, No Iterations 9
DICPCG:  Solving for p, Initial residual = 6.830419e-07, Final residual = 6.830419e-07, No Iterations 0
time step continuity errors : sum local = 2.80928e-06, global = -1.654361e-22, cumulative = 0
DICPCG:  Solving for p, Initial residual = 6.830419e-07, Final residual = 6.830419e-07, No Iterations 0
DICPCG:  Solving for p, Initial residual = 6.830419e-07, Final residual = 6.830419e-07, No Iterations 0
time step continuity errors : sum local = 2.80928e-06, global = -1.654361e-22, cumulative = -1.654361e-22
smoothSolver:  Solving for T, Initial residual = 0.3328957, Final residual = 0.0007366288, No Iterations 1
ExecutionTime = 0.01 s  ClockTime = 0 s

Time = 1.5

Courant Number mean: 8.988431e-05 max: 0.001116921
DICPCG:  Solving for p, Initial residual = 0.334551, Final residual = 0.002402097, No Iterations 41
DICPCG:  Solving for p, Initial residual = 0.001428686, Final residual = 1.320527e-05, No Iterations 16
time step continuity errors : sum local = 8.647814e-06, global = 9.926167e-22, cumulative = 8.271806e-22
DICPCG:  Solving for p, Initial residual = 1.321563e-05, Final residual = 7.152425e-07, No Iterations 15
DICPCG:  Solving for p, Initial residual = 7.152432e-07, Final residual = 7.152432e-07, No Iterations 0
time step continuity errors : sum local = 8.624967e-06, global = 0, cumulative = 8.271806e-22
DICPCG:  Solving for p, Initial residual = 7.152432e-07, Final residual = 7.152432e-07, No Iterations 0
DICPCG:  Solving for p, Initial residual = 7.152432e-07, Final residual = 7.152432e-07, No Iterations 0
time step continuity errors : sum local = 8.624967e-06, global = 0, cumulative = 8.271806e-22
smoothSolver:  Solving for T, Initial residual = 0.2039004, Final residual = 0.0004660296, No Iterations 1
ExecutionTime = 0.01 s  ClockTime = 0 s

Time = 2

Courant Number mean: 0.0002378787 max: 0.003205672
DICPCG:  Solving for p, Initial residual = 0.2436118, Final residual = 0.001452179, No Iterations 40
DICPCG:  Solving for p, Initial residual = 0.001048597, Final residual = 1.043935e-05, No Iterations 12
time step continuity errors : sum local = 1.793565e-05, global = 1.323489e-21, cumulative = 2.15067e-21
DICPCG:  Solving for p, Initial residual = 1.044483e-05, Final residual = 8.567234e-07, No Iterations 13
DICPCG:  Solving for p, Initial residual = 8.567237e-07, Final residual = 8.567237e-07, No Iterations 0
time step continuity errors : sum local = 1.790784e-05, global = 3.970467e-21, cumulative = 6.121137e-21
DICPCG:  Solving for p, Initial residual = 8.567237e-07, Final residual = 8.567237e-07, No Iterations 0
DICPCG:  Solving for p, Initial residual = 8.567237e-07, Final residual = 8.567237e-07, No Iterations 0
time step continuity errors : sum local = 1.790784e-05, global = 3.970467e-21, cumulative = 1.00916e-20
smoothSolver:  Solving for T, Initial residual = 0.1514505, Final residual = 0.0003620861, No Iterations 1
ExecutionTime = 0.02 s  ClockTime = 0 s

Time = 2.5

Courant Number mean: 0.00044273 max: 0.006387089
DICPCG:  Solving for p, Initial residual = 0.218592, Final residual = 0.001801165, No Iterations 38
DICPCG:  Solving for p, Initial residual = 0.001402632, Final residual = 1.131172e-05, No Iterations 13
time step continuity errors : sum local = 3.243635e-05, global = -3.970467e-21, cumulative = 6.121137e-21
DICPCG:  Solving for p, Initial residual = 1.131845e-05, Final residual = 9.85204e-07, No Iterations 14
DICPCG:  Solving for p, Initial residual = 9.852044e-07, Final residual = 9.852044e-07, No Iterations 0
time step continuity errors : sum local = 3.238438e-05, global = -7.279189e-21, cumulative = -1.158053e-21
DICPCG:  Solving for p, Initial residual = 9.852044e-07, Final residual = 9.852044e-07, No Iterations 0
DICPCG:  Solving for p, Initial residual = 9.852044e-07, Final residual = 9.852044e-07, No Iterations 0
time step continuity errors : sum local = 3.238438e-05, global = -7.279189e-21, cumulative = -8.437242e-21
smoothSolver:  Solving for T, Initial residual = 0.129532, Final residual = 0.0003305034, No Iterations 1
ExecutionTime = 0.02 s  ClockTime = 0 s

Time = 3

Courant Number mean: 0.000702852 max: 0.01077833
DICPCG:  Solving for p, Initial residual = 0.2291602, Final residual = 0.001607474, No Iterations 37
DICPCG:  Solving for p, Initial residual = 0.001293633, Final residual = 1.269594e-05, No Iterations 13
time step continuity errors : sum local = 5.520781e-05, global = 2.646978e-21, cumulative = -5.790264e-21
DICPCG:  Solving for p, Initial residual = 1.27024e-05, Final residual = 9.082144e-07, No Iterations 37
DICPCG:  Solving for p, Initial residual = 9.08208e-07, Final residual = 9.08208e-07, No Iterations 0
time step continuity errors : sum local = 5.513837e-05, global = -9.264423e-21, cumulative = -1.505469e-20
DICPCG:  Solving for p, Initial residual = 9.08208e-07, Final residual = 9.08208e-07, No Iterations 0
DICPCG:  Solving for p, Initial residual = 9.08208e-07, Final residual = 9.08208e-07, No Iterations 0
time step continuity errors : sum local = 5.513837e-05, global = -9.264423e-21, cumulative = -2.431911e-20
smoothSolver:  Solving for T, Initial residual = 0.1207011, Final residual = 0.0003341257, No Iterations 1
ExecutionTime = 0.02 s  ClockTime = 0 s

Time = 3.5

Courant Number mean: 0.00101634 max: 0.01639851
DICPCG:  Solving for p, Initial residual = 0.231929, Final residual = 0.002212682, No Iterations 33
DICPCG:  Solving for p, Initial residual = 0.001808146, Final residual = 1.649141e-05, No Iterations 13
time step continuity errors : sum local = 9.067432e-05, global = 7.940934e-21, cumulative = -1.637818e-20
DICPCG:  Solving for p, Initial residual = 1.650684e-05, Final residual = 8.271478e-07, No Iterations 39
DICPCG:  Solving for p, Initial residual = 8.271272e-07, Final residual = 8.271272e-07, No Iterations 0
time step continuity errors : sum local = 9.047957e-05, global = 3.970467e-21, cumulative = -1.240771e-20
DICPCG:  Solving for p, Initial residual = 8.271272e-07, Final residual = 8.271272e-07, No Iterations 0
DICPCG:  Solving for p, Initial residual = 8.271272e-07, Final residual = 8.271272e-07, No Iterations 0
time step continuity errors : sum local = 9.047957e-05, global = 3.970467e-21, cumulative = -8.437242e-21
smoothSolver:  Solving for T, Initial residual = 0.1199162, Final residual = 0.0003628063, No Iterations 1
ExecutionTime = 0.03 s  ClockTime = 0 s

Time = 4

Courant Number mean: 0.001383243 max: 0.02309808
DICPCG:  Solving for p, Initial residual = 0.2231031, Final residual = 0.001899952, No Iterations 13
DICPCG:  Solving for p, Initial residual = 0.001574681, Final residual = 1.054448e-05, No Iterations 37
time step continuity errors : sum local = 0.0001441567, global = 2.646978e-21, cumulative = -5.790264e-21
DICPCG:  Solving for p, Initial residual = 1.049805e-05, Final residual = 7.685352e-07, No Iterations 6
DICPCG:  Solving for p, Initial residual = 7.685361e-07, Final residual = 7.685361e-07, No Iterations 0
time step continuity errors : sum local = 0.0001440896, global = 0, cumulative = -5.790264e-21
DICPCG:  Solving for p, Initial residual = 7.685361e-07, Final residual = 7.685361e-07, No Iterations 0
DICPCG:  Solving for p, Initial residual = 7.685361e-07, Final residual = 7.685361e-07, No Iterations 0
time step continuity errors : sum local = 0.0001440896, global = 0, cumulative = -5.790264e-21
smoothSolver:  Solving for T, Initial residual = 0.1286688, Final residual = 0.0004154391, No Iterations 1
ExecutionTime = 0.03 s  ClockTime = 0 s

Time = 4.5

Courant Number mean: 0.001800242 max: 0.03054609
DICPCG:  Solving for p, Initial residual = 0.2136991, Final residual = 0.001729127, No Iterations 12
DICPCG:  Solving for p, Initial residual = 0.001443703, Final residual = 9.836088e-06, No Iterations 38
time step continuity errors : sum local = 0.0002223537, global = -1.058791e-20, cumulative = -1.637818e-20
DICPCG:  Solving for p, Initial residual = 9.822217e-06, Final residual = 5.891339e-07, No Iterations 13
DICPCG:  Solving for p, Initial residual = 5.891338e-07, Final residual = 5.891338e-07, No Iterations 0
time step continuity errors : sum local = 0.0002218886, global = 2.38228e-20, cumulative = 7.444626e-21
DICPCG:  Solving for p, Initial residual = 5.891338e-07, Final residual = 5.891338e-07, No Iterations 0
DICPCG:  Solving for p, Initial residual = 5.891338e-07, Final residual = 5.891338e-07, No Iterations 0
time step continuity errors : sum local = 0.0002218886, global = 2.38228e-20, cumulative = 3.126743e-20
smoothSolver:  Solving for T, Initial residual = 0.1344261, Final residual = 0.0004702316, No Iterations 1
ExecutionTime = 0.03 s  ClockTime = 0 s

Time = 5

Courant Number mean: 0.002267637 max: 0.03870367
DICPCG:  Solving for p, Initial residual = 0.2028411, Final residual = 0.002018771, No Iterations 11
DICPCG:  Solving for p, Initial residual = 0.001703265, Final residual = 1.180075e-05, No Iterations 38
time step continuity errors : sum local = 0.000327852, global = 3.176374e-20, cumulative = 6.303116e-20
DICPCG:  Solving for p, Initial residual = 1.17963e-05, Final residual = 8.128721e-07, No Iterations 14
DICPCG:  Solving for p, Initial residual = 8.128725e-07, Final residual = 8.128725e-07, No Iterations 0
time step continuity errors : sum local = 0.00032709, global = -1.323489e-20, cumulative = 4.979627e-20
DICPCG:  Solving for p, Initial residual = 8.128725e-07, Final residual = 8.128725e-07, No Iterations 0
DICPCG:  Solving for p, Initial residual = 8.128725e-07, Final residual = 8.128725e-07, No Iterations 0
time step continuity errors : sum local = 0.00032709, global = -1.323489e-20, cumulative = 3.656138e-20
smoothSolver:  Solving for T, Initial residual = 0.1402558, Final residual = 0.0005274119, No Iterations 1
ExecutionTime = 0.04 s  ClockTime = 0 s

Time = 5.5

Courant Number mean: 0.002782759 max: 0.04754984
DICPCG:  Solving for p, Initial residual = 0.1937928, Final residual = 0.00149295, No Iterations 11
DICPCG:  Solving for p, Initial residual = 0.001268755, Final residual = 1.215442e-05, No Iterations 42
time step continuity errors : sum local = 0.0004694451, global = -1.323489e-20, cumulative = 2.332649e-20
DICPCG:  Solving for p, Initial residual = 1.214416e-05, Final residual = 9.288688e-07, No Iterations 15
DICPCG:  Solving for p, Initial residual = 9.288692e-07, Final residual = 9.288692e-07, No Iterations 0
time step continuity errors : sum local = 0.0004686929, global = 3.176374e-20, cumulative = 5.509023e-20
DICPCG:  Solving for p, Initial residual = 9.288692e-07, Final residual = 9.288692e-07, No Iterations 0
DICPCG:  Solving for p, Initial residual = 9.288692e-07, Final residual = 9.288692e-07, No Iterations 0
time step continuity errors : sum local = 0.0004686929, global = 3.176374e-20, cumulative = 8.685396e-20
smoothSolver:  Solving for T, Initial residual = 0.1460864, Final residual = 0.0005923554, No Iterations 1
ExecutionTime = 0.04 s  ClockTime = 0 s

Time = 6

Courant Number mean: 0.003345814 max: 0.06052387
DICPCG:  Solving for p, Initial residual = 0.1889442, Final residual = 0.001245056, No Iterations 11
DICPCG:  Solving for p, Initial residual = 0.001065573, Final residual = 8.022602e-06, No Iterations 43
time step continuity errors : sum local = 0.0006600302, global = 2.646978e-20, cumulative = 1.133237e-19
DICPCG:  Solving for p, Initial residual = 8.010891e-06, Final residual = 9.014062e-07, No Iterations 11
DICPCG:  Solving for p, Initial residual = 9.014077e-07, Final residual = 9.014077e-07, No Iterations 0
time step continuity errors : sum local = 0.0006596161, global = 3.705769e-20, cumulative = 1.503814e-19
DICPCG:  Solving for p, Initial residual = 9.014077e-07, Final residual = 9.014077e-07, No Iterations 0
DICPCG:  Solving for p, Initial residual = 9.014077e-07, Final residual = 9.014077e-07, No Iterations 0
time step continuity errors : sum local = 0.0006596161, global = 3.705769e-20, cumulative = 1.874391e-19
smoothSolver:  Solving for T, Initial residual = 0.1477345, Final residual = 0.0006388239, No Iterations 1
ExecutionTime = 0.04 s  ClockTime = 0 s

Time = 6.5

Courant Number mean: 0.003956463 max: 0.07613281
DICPCG:  Solving for p, Initial residual = 0.1895553, Final residual = 0.001613373, No Iterations 10
DICPCG:  Solving for p, Initial residual = 0.001396063, Final residual = 1.324987e-05, No Iterations 45
time step continuity errors : sum local = 0.0009014125, global = 1.852885e-20, cumulative = 2.05968e-19
DICPCG:  Solving for p, Initial residual = 1.322705e-05, Final residual = 9.016364e-07, No Iterations 10
DICPCG:  Solving for p, Initial residual = 9.016368e-07, Final residual = 9.016368e-07, No Iterations 0
time step continuity errors : sum local = 0.0009006814, global = 4.235165e-20, cumulative = 2.483196e-19
DICPCG:  Solving for p, Initial residual = 9.016368e-07, Final residual = 9.016368e-07, No Iterations 0
DICPCG:  Solving for p, Initial residual = 9.016368e-07, Final residual = 9.016368e-07, No Iterations 0
time step continuity errors : sum local = 0.0009006814, global = 4.235165e-20, cumulative = 2.906713e-19
smoothSolver:  Solving for T, Initial residual = 0.1483319, Final residual = 0.0006673417, No Iterations 1
ExecutionTime = 0.04 s  ClockTime = 0 s

Time = 7

Courant Number mean: 0.004618897 max: 0.09197571
DICPCG:  Solving for p, Initial residual = 0.2003688, Final residual = 0.001914787, No Iterations 7
DICPCG:  Solving for p, Initial residual = 0.001678566, Final residual = 1.199507e-05, No Iterations 45
time step continuity errors : sum local = 0.001190896, global = 2.646978e-21, cumulative = 2.933182e-19
DICPCG:  Solving for p, Initial residual = 1.197069e-05, Final residual = 7.475352e-07, No Iterations 9
DICPCG:  Solving for p, Initial residual = 7.475366e-07, Final residual = 7.475366e-07, No Iterations 0
time step continuity errors : sum local = 0.001190342, global = -3.441071e-20, cumulative = 2.589075e-19
DICPCG:  Solving for p, Initial residual = 7.475366e-07, Final residual = 7.475366e-07, No Iterations 0
DICPCG:  Solving for p, Initial residual = 7.475366e-07, Final residual = 7.475366e-07, No Iterations 0
time step continuity errors : sum local = 0.001190342, global = -3.441071e-20, cumulative = 2.244968e-19
smoothSolver:  Solving for T, Initial residual = 0.1454735, Final residual = 0.0006840571, No Iterations 1
ExecutionTime = 0.04 s  ClockTime = 0 s

Time = 7.5

Courant Number mean: 0.005338115 max: 0.1071507
DICPCG:  Solving for p, Initial residual = 0.2193613, Final residual = 0.00197629, No Iterations 5
DICPCG:  Solving for p, Initial residual = 0.001743186, Final residual = 1.380335e-05, No Iterations 47
time step continuity errors : sum local = 0.001549099, global = -7.411538e-20, cumulative = 1.503814e-19
DICPCG:  Solving for p, Initial residual = 1.377715e-05, Final residual = 9.334644e-07, No Iterations 9
DICPCG:  Solving for p, Initial residual = 9.334654e-07, Final residual = 9.334654e-07, No Iterations 0
time step continuity errors : sum local = 0.001548845, global = 4.102816e-20, cumulative = 1.914096e-19
DICPCG:  Solving for p, Initial residual = 9.334654e-07, Final residual = 9.334654e-07, No Iterations 0
DICPCG:  Solving for p, Initial residual = 9.334654e-07, Final residual = 9.334654e-07, No Iterations 0
time step continuity errors : sum local = 0.001548845, global = 4.102816e-20, cumulative = 2.324378e-19
smoothSolver:  Solving for T, Initial residual = 0.1420786, Final residual = 0.0006904303, No Iterations 1
ExecutionTime = 0.05 s  ClockTime = 0 s

Time = 8

Courant Number mean: 0.006120994 max: 0.1338266
DICPCG:  Solving for p, Initial residual = 0.2391397, Final residual = 0.002071261, No Iterations 5
DICPCG:  Solving for p, Initial residual = 0.00179071, Final residual = 1.537079e-05, No Iterations 47
time step continuity errors : sum local = 0.002110932, global = -1.16467e-19, cumulative = 1.159707e-19
DICPCG:  Solving for p, Initial residual = 1.535371e-05, Final residual = 7.033597e-07, No Iterations 10
DICPCG:  Solving for p, Initial residual = 7.033613e-07, Final residual = 7.033613e-07, No Iterations 0
time step continuity errors : sum local = 0.002110255, global = 7.411538e-20, cumulative = 1.900861e-19
DICPCG:  Solving for p, Initial residual = 7.033613e-07, Final residual = 7.033613e-07, No Iterations 0
DICPCG:  Solving for p, Initial residual = 7.033613e-07, Final residual = 7.033613e-07, No Iterations 0
time step continuity errors : sum local = 0.002110255, global = 7.411538e-20, cumulative = 2.642015e-19
smoothSolver:  Solving for T, Initial residual = 0.1484902, Final residual = 0.0007366671, No Iterations 1
ExecutionTime = 0.05 s  ClockTime = 0 s

Time = 8.5

Courant Number mean: 0.00698689 max: 0.1629752
DICPCG:  Solving for p, Initial residual = 0.2599448, Final residual = 0.002310952, No Iterations 5
DICPCG:  Solving for p, Initial residual = 0.001997777, Final residual = 1.597539e-05, No Iterations 47
time step continuity errors : sum local = 0.002873331, global = 2.646978e-20, cumulative = 2.906713e-19
DICPCG:  Solving for p, Initial residual = 1.597449e-05, Final residual = 9.445882e-07, No Iterations 9
DICPCG:  Solving for p, Initial residual = 9.445899e-07, Final residual = 9.445899e-07, No Iterations 0
time step continuity errors : sum local = 0.002871105, global = -1.138201e-19, cumulative = 1.768512e-19
DICPCG:  Solving for p, Initial residual = 9.445899e-07, Final residual = 9.445899e-07, No Iterations 0
DICPCG:  Solving for p, Initial residual = 9.445899e-07, Final residual = 9.445899e-07, No Iterations 0
time step continuity errors : sum local = 0.002871105, global = -1.138201e-19, cumulative = 6.303116e-20
smoothSolver:  Solving for T, Initial residual = 0.1577894, Final residual = 0.0008055178, No Iterations 1
ExecutionTime = 0.05 s  ClockTime = 0 s

Time = 9

Courant Number mean: 0.007975666 max: 0.1909815
DICPCG:  Solving for p, Initial residual = 0.2769944, Final residual = 0.002582379, No Iterations 5
DICPCG:  Solving for p, Initial residual = 0.002170561, Final residual = 1.704708e-05, No Iterations 47
time step continuity errors : sum local = 0.004188041, global = 1.799945e-19, cumulative = 2.430257e-19
DICPCG:  Solving for p, Initial residual = 1.705886e-05, Final residual = 9.828586e-07, No Iterations 9
DICPCG:  Solving for p, Initial residual = 9.828611e-07, Final residual = 9.828611e-07, No Iterations 0
time step continuity errors : sum local = 0.004185132, global = -2.646978e-20, cumulative = 2.165559e-19
DICPCG:  Solving for p, Initial residual = 9.828611e-07, Final residual = 9.828611e-07, No Iterations 0
DICPCG:  Solving for p, Initial residual = 9.828611e-07, Final residual = 9.828611e-07, No Iterations 0
time step continuity errors : sum local = 0.004185132, global = -2.646978e-20, cumulative = 1.900861e-19
smoothSolver:  Solving for T, Initial residual = 0.1782527, Final residual = 0.0009071603, No Iterations 1
ExecutionTime = 0.06 s  ClockTime = 0 s

Time = 9.5

Courant Number mean: 0.009117024 max: 0.2136856
DICPCG:  Solving for p, Initial residual = 0.2681803, Final residual = 0.002553972, No Iterations 6
DICPCG:  Solving for p, Initial residual = 0.002135682, Final residual = 1.507909e-05, No Iterations 47
time step continuity errors : sum local = 0.006166668, global = 2.646978e-20, cumulative = 2.165559e-19
DICPCG:  Solving for p, Initial residual = 1.509702e-05, Final residual = 8.464072e-07, No Iterations 8
DICPCG:  Solving for p, Initial residual = 8.464098e-07, Final residual = 8.464098e-07, No Iterations 0
time step continuity errors : sum local = 0.006160296, global = -1.058791e-19, cumulative = 1.106768e-19
DICPCG:  Solving for p, Initial residual = 8.464098e-07, Final residual = 8.464098e-07, No Iterations 0
DICPCG:  Solving for p, Initial residual = 8.464098e-07, Final residual = 8.464098e-07, No Iterations 0
time step continuity errors : sum local = 0.006160296, global = -1.058791e-19, cumulative = 4.797648e-21
smoothSolver:  Solving for T, Initial residual = 0.199584, Final residual = 0.00105617, No Iterations 1
ExecutionTime = 0.06 s  ClockTime = 0 s

Time = 10

Courant Number mean: 0.01055629 max: 0.2564117
DICPCG:  Solving for p, Initial residual = 0.2801525, Final residual = 0.002220804, No Iterations 7
DICPCG:  Solving for p, Initial residual = 0.001880814, Final residual = 1.645959e-05, No Iterations 46
time step continuity errors : sum local = 0.008735674, global = 2.43522e-19, cumulative = 2.483196e-19
DICPCG:  Solving for p, Initial residual = 1.64582e-05, Final residual = 9.519758e-07, No Iterations 8
DICPCG:  Solving for p, Initial residual = 9.519782e-07, Final residual = 9.519782e-07, No Iterations 0
time step continuity errors : sum local = 0.00872962, global = -2.117582e-20, cumulative = 2.271438e-19
DICPCG:  Solving for p, Initial residual = 9.519782e-07, Final residual = 9.519782e-07, No Iterations 0
DICPCG:  Solving for p, Initial residual = 9.519782e-07, Final residual = 9.519782e-07, No Iterations 0
time step continuity errors : sum local = 0.00872962, global = -2.117582e-20, cumulative = 2.05968e-19
smoothSolver:  Solving for T, Initial residual = 0.2081128, Final residual = 0.001280424, No Iterations 1
ExecutionTime = 0.07 s  ClockTime = 0 s

Time = 10.5

Courant Number mean: 0.01247773 max: 0.3509084
DICPCG:  Solving for p, Initial residual = 0.280636, Final residual = 0.002478125, No Iterations 7
DICPCG:  Solving for p, Initial residual = 0.002080322, Final residual = 1.213239e-05, No Iterations 47
time step continuity errors : sum local = 0.01256699, global = -9.529121e-20, cumulative = 1.106768e-19
DICPCG:  Solving for p, Initial residual = 1.213544e-05, Final residual = 8.47957e-07, No Iterations 6
DICPCG:  Solving for p, Initial residual = 8.479581e-07, Final residual = 8.479581e-07, No Iterations 0
time step continuity errors : sum local = 0.01255763, global = -6.352747e-20, cumulative = 4.714929e-20
DICPCG:  Solving for p, Initial residual = 8.479581e-07, Final residual = 8.479581e-07, No Iterations 0
DICPCG:  Solving for p, Initial residual = 8.479581e-07, Final residual = 8.479581e-07, No Iterations 0
time step continuity errors : sum local = 0.01255763, global = -6.352747e-20, cumulative = -1.637818e-20
smoothSolver:  Solving for T, Initial residual = 0.2174377, Final residual = 0.001430771, No Iterations 1
ExecutionTime = 0.07 s  ClockTime = 0 s

Time = 11

Courant Number mean: 0.01518008 max: 0.4504332
DICPCG:  Solving for p, Initial residual = 0.2794041, Final residual = 0.002685369, No Iterations 7
DICPCG:  Solving for p, Initial residual = 0.002245596, Final residual = 2.056599e-05, No Iterations 46
time step continuity errors : sum local = 0.01817501, global = -3.758709e-19, cumulative = -3.92249e-19
DICPCG:  Solving for p, Initial residual = 2.057712e-05, Final residual = 9.233697e-07, No Iterations 11
DICPCG:  Solving for p, Initial residual = 9.233741e-07, Final residual = 9.233741e-07, No Iterations 0
time step continuity errors : sum local = 0.01816059, global = -1.641126e-19, cumulative = -5.563617e-19
DICPCG:  Solving for p, Initial residual = 9.233741e-07, Final residual = 9.233741e-07, No Iterations 0
DICPCG:  Solving for p, Initial residual = 9.233741e-07, Final residual = 9.233741e-07, No Iterations 0
time step continuity errors : sum local = 0.01816059, global = -1.641126e-19, cumulative = -7.204743e-19
smoothSolver:  Solving for T, Initial residual = 0.224025, Final residual = 0.001631221, No Iterations 1
ExecutionTime = 0.08 s  ClockTime = 0 s

Time = 11.5

Courant Number mean: 0.01904807 max: 0.5289987
DICPCG:  Solving for p, Initial residual = 0.284944, Final residual = 0.002615894, No Iterations 9
DICPCG:  Solving for p, Initial residual = 0.002202951, Final residual = 1.598147e-05, No Iterations 45
time step continuity errors : sum local = 0.02553998, global = 5.082198e-19, cumulative = -2.122545e-19
DICPCG:  Solving for p, Initial residual = 1.597611e-05, Final residual = 7.066863e-07, No Iterations 9
DICPCG:  Solving for p, Initial residual = 7.066877e-07, Final residual = 7.066877e-07, No Iterations 0
time step continuity errors : sum local = 0.02550438, global = 2.752857e-19, cumulative = 6.303116e-20
DICPCG:  Solving for p, Initial residual = 7.066877e-07, Final residual = 7.066877e-07, No Iterations 0
DICPCG:  Solving for p, Initial residual = 7.066877e-07, Final residual = 7.066877e-07, No Iterations 0
time step continuity errors : sum local = 0.02550438, global = 2.752857e-19, cumulative = 3.383169e-19
smoothSolver:  Solving for T, Initial residual = 0.2224416, Final residual = 0.002016055, No Iterations 1
ExecutionTime = 0.08 s  ClockTime = 0 s

Time = 12

Courant Number mean: 0.02485951 max: 0.5548293
DICPCG:  Solving for p, Initial residual = 0.269672, Final residual = 0.002674987, No Iterations 10
DICPCG:  Solving for p, Initial residual = 0.002231336, Final residual = 1.70691e-05, No Iterations 44
time step continuity errors : sum local = 0.0363474, global = 4.552802e-19, cumulative = 7.935971e-19
DICPCG:  Solving for p, Initial residual = 1.70468e-05, Final residual = 8.910137e-07, No Iterations 7
DICPCG:  Solving for p, Initial residual = 8.910137e-07, Final residual = 8.910137e-07, No Iterations 0
time step continuity errors : sum local = 0.03631318, global = -1.111731e-18, cumulative = -3.181337e-19
DICPCG:  Solving for p, Initial residual = 8.910137e-07, Final residual = 8.910137e-07, No Iterations 0
DICPCG:  Solving for p, Initial residual = 8.910137e-07, Final residual = 8.910137e-07, No Iterations 0
time step continuity errors : sum local = 0.03631318, global = -1.111731e-18, cumulative = -1.429864e-18
smoothSolver:  Solving for T, Initial residual = 0.2197682, Final residual = 0.002350704, No Iterations 1
ExecutionTime = 0.08 s  ClockTime = 0 s

Time = 12.5

Courant Number mean: 0.03371791 max: 0.7038678
DICPCG:  Solving for p, Initial residual = 0.2503712, Final residual = 0.002437803, No Iterations 12
DICPCG:  Solving for p, Initial residual = 0.002083761, Final residual = 1.554551e-05, No Iterations 46
time step continuity errors : sum local = 0.04848003, global = -9.105604e-19, cumulative = -2.340425e-18
DICPCG:  Solving for p, Initial residual = 1.551495e-05, Final residual = 9.173262e-07, No Iterations 7
DICPCG:  Solving for p, Initial residual = 9.173285e-07, Final residual = 9.173285e-07, No Iterations 0
time step continuity errors : sum local = 0.0484641, global = 2.308165e-18, cumulative = -3.226004e-20
DICPCG:  Solving for p, Initial residual = 9.173285e-07, Final residual = 9.173285e-07, No Iterations 0
DICPCG:  Solving for p, Initial residual = 9.173285e-07, Final residual = 9.173285e-07, No Iterations 0
time step continuity errors : sum local = 0.0484641, global = 2.308165e-18, cumulative = 2.275905e-18
smoothSolver:  Solving for T, Initial residual = 0.2018309, Final residual = 0.002473299, No Iterations 1
ExecutionTime = 0.08 s  ClockTime = 0 s

Time = 13

Courant Number mean: 0.04624482 max: 0.8647857
DICPCG:  Solving for p, Initial residual = 0.2451261, Final residual = 0.002244189, No Iterations 13
DICPCG:  Solving for p, Initial residual = 0.001919229, Final residual = 1.365122e-05, No Iterations 46
time step continuity errors : sum local = 0.06406042, global = -4.658681e-19, cumulative = 1.810037e-18
DICPCG:  Solving for p, Initial residual = 1.36227e-05, Final residual = 7.028558e-07, No Iterations 11
DICPCG:  Solving for p, Initial residual = 7.028568e-07, Final residual = 7.028568e-07, No Iterations 0
time step continuity errors : sum local = 0.06401221, global = -1.905824e-18, cumulative = -9.578751e-20
DICPCG:  Solving for p, Initial residual = 7.028568e-07, Final residual = 7.028568e-07, No Iterations 0
DICPCG:  Solving for p, Initial residual = 7.028568e-07, Final residual = 7.028568e-07, No Iterations 0
time step continuity errors : sum local = 0.06401221, global = -1.905824e-18, cumulative = -2.001612e-18
smoothSolver:  Solving for T, Initial residual = 0.1869374, Final residual = 0.002518117, No Iterations 1
ExecutionTime = 0.09 s  ClockTime = 0 s

Time = 13.5

Courant Number mean: 0.06368246 max: 1.159494
DICPCG:  Solving for p, Initial residual = 0.2475553, Final residual = 0.002307062, No Iterations 10
DICPCG:  Solving for p, Initial residual = 0.001995489, Final residual = 1.320415e-05, No Iterations 44
time step continuity errors : sum local = 0.08015241, global = 8.046813e-19, cumulative = -1.19693e-18
DICPCG:  Solving for p, Initial residual = 1.317252e-05, Final residual = 8.204495e-07, No Iterations 9
DICPCG:  Solving for p, Initial residual = 8.204494e-07, Final residual = 8.204494e-07, No Iterations 0
time step continuity errors : sum local = 0.08011861, global = 8.470329e-19, cumulative = -3.498974e-19
DICPCG:  Solving for p, Initial residual = 8.204494e-07, Final residual = 8.204494e-07, No Iterations 0
DICPCG:  Solving for p, Initial residual = 8.204494e-07, Final residual = 8.204494e-07, No Iterations 0
time step continuity errors : sum local = 0.08011861, global = 8.470329e-19, cumulative = 4.971355e-19
smoothSolver:  Solving for T, Initial residual = 0.1688355, Final residual = 0.002598639, No Iterations 1
ExecutionTime = 0.09 s  ClockTime = 0 s

Time = 14

Courant Number mean: 0.08363165 max: 1.559395
DICPCG:  Solving for p, Initial residual = 0.2237415, Final residual = 0.002038198, No Iterations 11
DICPCG:  Solving for p, Initial residual = 0.001762712, Final residual = 1.709338e-05, No Iterations 43
time step continuity errors : sum local = 0.1011925, global = 2.710505e-18, cumulative = 3.207641e-18
DICPCG:  Solving for p, Initial residual = 1.707401e-05, Final residual = 6.970858e-07, No Iterations 12
DICPCG:  Solving for p, Initial residual = 6.970865e-07, Final residual = 6.970865e-07, No Iterations 0
time step continuity errors : sum local = 0.1010973, global = 1.439956e-18, cumulative = 4.647597e-18
DICPCG:  Solving for p, Initial residual = 6.970865e-07, Final residual = 6.970865e-07, No Iterations 0
DICPCG:  Solving for p, Initial residual = 6.970865e-07, Final residual = 6.970865e-07, No Iterations 0
time step continuity errors : sum local = 0.1010973, global = 1.439956e-18, cumulative = 6.087553e-18
smoothSolver:  Solving for T, Initial residual = 0.1577238, Final residual = 0.002617089, No Iterations 1
ExecutionTime = 0.1 s  ClockTime = 0 s

Time = 14.5

Courant Number mean: 0.1092476 max: 1.865621
DICPCG:  Solving for p, Initial residual = 0.2091145, Final residual = 0.00188219, No Iterations 10
DICPCG:  Solving for p, Initial residual = 0.001640696, Final residual = 1.582926e-05, No Iterations 43
time step continuity errors : sum local = 0.1232104, global = 9.317362e-19, cumulative = 7.019289e-18
DICPCG:  Solving for p, Initial residual = 1.581728e-05, Final residual = 9.834495e-07, No Iterations 11
DICPCG:  Solving for p, Initial residual = 9.834509e-07, Final residual = 9.834509e-07, No Iterations 0
time step continuity errors : sum local = 0.1231666, global = -2.286989e-18, cumulative = 4.7323e-18
DICPCG:  Solving for p, Initial residual = 9.834509e-07, Final residual = 9.834509e-07, No Iterations 0
DICPCG:  Solving for p, Initial residual = 9.834509e-07, Final residual = 9.834509e-07, No Iterations 0
time step continuity errors : sum local = 0.1231666, global = -2.286989e-18, cumulative = 2.445311e-18
smoothSolver:  Solving for T, Initial residual = 0.1458984, Final residual = 0.002576881, No Iterations 1
ExecutionTime = 0.1 s  ClockTime = 0 s

Time = 15

Courant Number mean: 0.1378942 max: 2.024714
DICPCG:  Solving for p, Initial residual = 0.2023654, Final residual = 0.001934933, No Iterations 7
DICPCG:  Solving for p, Initial residual = 0.001717866, Final residual = 1.432498e-05, No Iterations 46
time step continuity errors : sum local = 0.1449782, global = 1.524659e-18, cumulative = 3.969971e-18
DICPCG:  Solving for p, Initial residual = 1.430808e-05, Final residual = 8.208364e-07, No Iterations 7
DICPCG:  Solving for p, Initial residual = 8.208372e-07, Final residual = 8.208372e-07, No Iterations 0
time step continuity errors : sum local = 0.14493, global = 3.049319e-18, cumulative = 7.019289e-18
DICPCG:  Solving for p, Initial residual = 8.208372e-07, Final residual = 8.208372e-07, No Iterations 0
DICPCG:  Solving for p, Initial residual = 8.208372e-07, Final residual = 8.208372e-07, No Iterations 0
time step continuity errors : sum local = 0.14493, global = 3.049319e-18, cumulative = 1.006861e-17
smoothSolver:  Solving for T, Initial residual = 0.1333833, Final residual = 0.00245203, No Iterations 1
ExecutionTime = 0.1 s  ClockTime = 0 s

Time = 15.5

Courant Number mean: 0.1683504 max: 2.250709
DICPCG:  Solving for p, Initial residual = 0.1929916, Final residual = 0.00168523, No Iterations 6
DICPCG:  Solving for p, Initial residual = 0.001504605, Final residual = 1.480711e-05, No Iterations 46
time step continuity errors : sum local = 0.1687039, global = -2.032879e-18, cumulative = 8.035729e-18
DICPCG:  Solving for p, Initial residual = 1.478778e-05, Final residual = 8.689747e-07, No Iterations 9
DICPCG:  Solving for p, Initial residual = 8.689747e-07, Final residual = 8.689747e-07, No Iterations 0
time step continuity errors : sum local = 0.1686424, global = -2.710505e-18, cumulative = 5.325223e-18
DICPCG:  Solving for p, Initial residual = 8.689747e-07, Final residual = 8.689747e-07, No Iterations 0
DICPCG:  Solving for p, Initial residual = 8.689747e-07, Final residual = 8.689747e-07, No Iterations 0
time step continuity errors : sum local = 0.1686424, global = -2.710505e-18, cumulative = 2.614718e-18
smoothSolver:  Solving for T, Initial residual = 0.1241334, Final residual = 0.002284098, No Iterations 1
ExecutionTime = 0.1 s  ClockTime = 0 s

Time = 16

Courant Number mean: 0.2009418 max: 2.377104
DICPCG:  Solving for p, Initial residual = 0.171829, Final residual = 0.001692436, No Iterations 6
DICPCG:  Solving for p, Initial residual = 0.001521748, Final residual = 1.315429e-05, No Iterations 46
time step continuity errors : sum local = 0.1940569, global = -5.082198e-19, cumulative = 2.106498e-18
DICPCG:  Solving for p, Initial residual = 1.31442e-05, Final residual = 7.796514e-07, No Iterations 8
DICPCG:  Solving for p, Initial residual = 7.79651e-07, Final residual = 7.79651e-07, No Iterations 0
time step continuity errors : sum local = 0.1940395, global = 3.388132e-19, cumulative = 2.445311e-18
DICPCG:  Solving for p, Initial residual = 7.79651e-07, Final residual = 7.79651e-07, No Iterations 0
DICPCG:  Solving for p, Initial residual = 7.79651e-07, Final residual = 7.79651e-07, No Iterations 0
time step continuity errors : sum local = 0.1940395, global = 3.388132e-19, cumulative = 2.784125e-18
smoothSolver:  Solving for T, Initial residual = 0.1164851, Final residual = 0.002232572, No Iterations 1
ExecutionTime = 0.11 s  ClockTime = 0 s

Time = 16.5

Courant Number mean: 0.2357813 max: 2.555549
DICPCG:  Solving for p, Initial residual = 0.1530002, Final residual = 0.001450908, No Iterations 8
DICPCG:  Solving for p, Initial residual = 0.001324347, Final residual = 1.17807e-05, No Iterations 44
time step continuity errors : sum local = 0.2184676, global = -4.065758e-18, cumulative = -1.281634e-18
DICPCG:  Solving for p, Initial residual = 1.177052e-05, Final residual = 8.221928e-07, No Iterations 8
DICPCG:  Solving for p, Initial residual = 8.221923e-07, Final residual = 8.221923e-07, No Iterations 0
time step continuity errors : sum local = 0.2183839, global = -4.743385e-18, cumulative = -6.025018e-18
DICPCG:  Solving for p, Initial residual = 8.221923e-07, Final residual = 8.221923e-07, No Iterations 0
DICPCG:  Solving for p, Initial residual = 8.221923e-07, Final residual = 8.221923e-07, No Iterations 0
time step continuity errors : sum local = 0.2183839, global = -4.743385e-18, cumulative = -1.07684e-17
smoothSolver:  Solving for T, Initial residual = 0.108782, Final residual = 0.002142518, No Iterations 1
ExecutionTime = 0.11 s  ClockTime = 0 s

Time = 17

Courant Number mean: 0.2728302 max: 2.801579
DICPCG:  Solving for p, Initial residual = 0.1499158, Final residual = 0.001448672, No Iterations 8
DICPCG:  Solving for p, Initial residual = 0.00134314, Final residual = 1.093813e-05, No Iterations 44
time step continuity errors : sum local = 0.2394844, global = -1.101143e-17, cumulative = -2.177983e-17
DICPCG:  Solving for p, Initial residual = 1.092449e-05, Final residual = 7.989666e-07, No Iterations 8
DICPCG:  Solving for p, Initial residual = 7.989656e-07, Final residual = 7.989656e-07, No Iterations 0
time step continuity errors : sum local = 0.2394055, global = 1.185846e-18, cumulative = -2.059398e-17
DICPCG:  Solving for p, Initial residual = 7.989656e-07, Final residual = 7.989656e-07, No Iterations 0
DICPCG:  Solving for p, Initial residual = 7.989656e-07, Final residual = 7.989656e-07, No Iterations 0
time step continuity errors : sum local = 0.2394055, global = 1.185846e-18, cumulative = -1.940814e-17
smoothSolver:  Solving for T, Initial residual = 0.1007194, Final residual = 0.002057401, No Iterations 1
ExecutionTime = 0.11 s  ClockTime = 0 s

Time = 17.5

Courant Number mean: 0.3134862 max: 3.163701
DICPCG:  Solving for p, Initial residual = 0.1526437, Final residual = 0.001452899, No Iterations 6
DICPCG:  Solving for p, Initial residual = 0.001351209, Final residual = 1.144683e-05, No Iterations 44
time step continuity errors : sum local = 0.2599755, global = 5.251604e-18, cumulative = -1.415653e-17
DICPCG:  Solving for p, Initial residual = 1.143127e-05, Final residual = 8.194121e-07, No Iterations 10
DICPCG:  Solving for p, Initial residual = 8.194125e-07, Final residual = 8.194125e-07, No Iterations 0
time step continuity errors : sum local = 0.2599135, global = 1.694066e-18, cumulative = -1.246247e-17
DICPCG:  Solving for p, Initial residual = 8.194125e-07, Final residual = 8.194125e-07, No Iterations 0
DICPCG:  Solving for p, Initial residual = 8.194125e-07, Final residual = 8.194125e-07, No Iterations 0
time step continuity errors : sum local = 0.2599135, global = 1.694066e-18, cumulative = -1.07684e-17
smoothSolver:  Solving for T, Initial residual = 0.09494848, Final residual = 0.001998027, No Iterations 1
ExecutionTime = 0.11 s  ClockTime = 0 s

Time = 18

Courant Number mean: 0.3552537 max: 3.454206
DICPCG:  Solving for p, Initial residual = 0.1435493, Final residual = 0.001290359, No Iterations 6
DICPCG:  Solving for p, Initial residual = 0.001200267, Final residual = 1.181564e-05, No Iterations 45
time step continuity errors : sum local = 0.2836258, global = 3.896352e-18, cumulative = -6.872051e-18
DICPCG:  Solving for p, Initial residual = 1.180112e-05, Final residual = 8.882587e-07, No Iterations 11
DICPCG:  Solving for p, Initial residual = 8.882593e-07, Final residual = 8.882593e-07, No Iterations 0
time step continuity errors : sum local = 0.2835829, global = -2.202286e-18, cumulative = -9.074337e-18
DICPCG:  Solving for p, Initial residual = 8.882593e-07, Final residual = 8.882593e-07, No Iterations 0
DICPCG:  Solving for p, Initial residual = 8.882593e-07, Final residual = 8.882593e-07, No Iterations 0
time step continuity errors : sum local = 0.2835829, global = -2.202286e-18, cumulative = -1.127662e-17
smoothSolver:  Solving for T, Initial residual = 0.08987939, Final residual = 0.001931425, No Iterations 1
ExecutionTime = 0.11 s  ClockTime = 0 s

Time = 18.5

Courant Number mean: 0.3984082 max: 3.681122
DICPCG:  Solving for p, Initial residual = 0.1320075, Final residual = 0.001267287, No Iterations 5
DICPCG:  Solving for p, Initial residual = 0.001185974, Final residual = 9.915331e-06, No Iterations 40
time step continuity errors : sum local = 0.3068196, global = -3.557538e-18, cumulative = -1.483416e-17
DICPCG:  Solving for p, Initial residual = 9.903568e-06, Final residual = 7.458493e-07, No Iterations 11
DICPCG:  Solving for p, Initial residual = 7.4585e-07, Final residual = 7.4585e-07, No Iterations 0
time step continuity errors : sum local = 0.3068795, global = 7.115077e-18, cumulative = -7.719084e-18
DICPCG:  Solving for p, Initial residual = 7.4585e-07, Final residual = 7.4585e-07, No Iterations 0
DICPCG:  Solving for p, Initial residual = 7.4585e-07, Final residual = 7.4585e-07, No Iterations 0
time step continuity errors : sum local = 0.3068795, global = 7.115077e-18, cumulative = -6.040073e-19
smoothSolver:  Solving for T, Initial residual = 0.08546901, Final residual = 0.001876985, No Iterations 1
ExecutionTime = 0.12 s  ClockTime = 0 s

Time = 19

Courant Number mean: 0.4440897 max: 3.857605
DICPCG:  Solving for p, Initial residual = 0.1267259, Final residual = 0.001042072, No Iterations 5
DICPCG:  Solving for p, Initial residual = 0.0009794114, Final residual = 7.31525e-06, No Iterations 42
time step continuity errors : sum local = 0.3288152, global = -1.01644e-17, cumulative = -1.07684e-17
DICPCG:  Solving for p, Initial residual = 7.308676e-06, Final residual = 8.812606e-07, No Iterations 12
DICPCG:  Solving for p, Initial residual = 8.812609e-07, Final residual = 8.812609e-07, No Iterations 0
time step continuity errors : sum local = 0.3288665, global = 1.270549e-17, cumulative = 1.937092e-18
DICPCG:  Solving for p, Initial residual = 8.812609e-07, Final residual = 8.812609e-07, No Iterations 0
DICPCG:  Solving for p, Initial residual = 8.812609e-07, Final residual = 8.812609e-07, No Iterations 0
time step continuity errors : sum local = 0.3288665, global = 1.270549e-17, cumulative = 1.464259e-17
smoothSolver:  Solving for T, Initial residual = 0.08189838, Final residual = 0.001873035, No Iterations 1
ExecutionTime = 0.12 s  ClockTime = 0 s

Time = 19.5

Courant Number mean: 0.4902216 max: 3.984318
DICPCG:  Solving for p, Initial residual = 0.1195293, Final residual = 0.0009843476, No Iterations 5
DICPCG:  Solving for p, Initial residual = 0.0009298589, Final residual = 8.87155e-06, No Iterations 44
time step continuity errors : sum local = 0.3506661, global = -6.43745e-18, cumulative = 8.205135e-18
DICPCG:  Solving for p, Initial residual = 8.863114e-06, Final residual = 8.25287e-07, No Iterations 9
DICPCG:  Solving for p, Initial residual = 8.252866e-07, Final residual = 8.252866e-07, No Iterations 0
time step continuity errors : sum local = 0.3507548, global = 6.268044e-18, cumulative = 1.447318e-17
DICPCG:  Solving for p, Initial residual = 8.252866e-07, Final residual = 8.252866e-07, No Iterations 0
DICPCG:  Solving for p, Initial residual = 8.252866e-07, Final residual = 8.252866e-07, No Iterations 0
time step continuity errors : sum local = 0.3507548, global = 6.268044e-18, cumulative = 2.074122e-17
smoothSolver:  Solving for T, Initial residual = 0.07876684, Final residual = 0.00186754, No Iterations 1
ExecutionTime = 0.12 s  ClockTime = 0 s

Time = 20

Courant Number mean: 0.5369046 max: 4.06752
DICPCG:  Solving for p, Initial residual = 0.1146333, Final residual = 0.0009513396, No Iterations 5
DICPCG:  Solving for p, Initial residual = 0.0009021683, Final residual = 7.270128e-06, No Iterations 43
time step continuity errors : sum local = 0.3727007, global = 1.03338e-17, cumulative = 3.107502e-17
DICPCG:  Solving for p, Initial residual = 7.262635e-06, Final residual = 8.875162e-07, No Iterations 10
DICPCG:  Solving for p, Initial residual = 8.875164e-07, Final residual = 8.875164e-07, No Iterations 0
time step continuity errors : sum local = 0.3727994, global = -3.049319e-18, cumulative = 2.802571e-17
DICPCG:  Solving for p, Initial residual = 8.875164e-07, Final residual = 8.875164e-07, No Iterations 0
DICPCG:  Solving for p, Initial residual = 8.875164e-07, Final residual = 8.875164e-07, No Iterations 0
time step continuity errors : sum local = 0.3727994, global = -3.049319e-18, cumulative = 2.497639e-17
smoothSolver:  Solving for T, Initial residual = 0.07539729, Final residual = 0.001808526, No Iterations 1
ExecutionTime = 0.13 s  ClockTime = 0 s

Time = 20.5

Courant Number mean: 0.5856526 max: 4.114509
DICPCG:  Solving for p, Initial residual = 0.1081329, Final residual = 0.001053273, No Iterations 4
DICPCG:  Solving for p, Initial residual = 0.00100231, Final residual = 7.582107e-06, No Iterations 46
time step continuity errors : sum local = 0.3923198, global = 5.082198e-19, cumulative = 2.548461e-17
DICPCG:  Solving for p, Initial residual = 7.570854e-06, Final residual = 9.471448e-07, No Iterations 6
DICPCG:  Solving for p, Initial residual = 9.471453e-07, Final residual = 9.471453e-07, No Iterations 0
time step continuity errors : sum local = 0.392301, global = 2.879912e-18, cumulative = 2.836452e-17
DICPCG:  Solving for p, Initial residual = 9.471453e-07, Final residual = 9.471453e-07, No Iterations 0
DICPCG:  Solving for p, Initial residual = 9.471453e-07, Final residual = 9.471453e-07, No Iterations 0
time step continuity errors : sum local = 0.392301, global = 2.879912e-18, cumulative = 3.124443e-17
smoothSolver:  Solving for T, Initial residual = 0.07169149, Final residual = 0.001739814, No Iterations 1
ExecutionTime = 0.13 s  ClockTime = 0 s

Time = 21

Courant Number mean: 0.6345597 max: 4.251815
DICPCG:  Solving for p, Initial residual = 0.1041222, Final residual = 0.0008731319, No Iterations 5
DICPCG:  Solving for p, Initial residual = 0.000836873, Final residual = 5.385288e-06, No Iterations 46
time step continuity errors : sum local = 0.4086051, global = 5.421011e-18, cumulative = 3.666544e-17
DICPCG:  Solving for p, Initial residual = 5.374081e-06, Final residual = 8.482186e-07, No Iterations 6
DICPCG:  Solving for p, Initial residual = 8.482183e-07, Final residual = 8.482183e-07, No Iterations 0
time step continuity errors : sum local = 0.4087919, global = 1.185846e-18, cumulative = 3.785129e-17
DICPCG:  Solving for p, Initial residual = 8.482183e-07, Final residual = 8.482183e-07, No Iterations 0
DICPCG:  Solving for p, Initial residual = 8.482183e-07, Final residual = 8.482183e-07, No Iterations 0
time step continuity errors : sum local = 0.4087919, global = 1.185846e-18, cumulative = 3.903713e-17
smoothSolver:  Solving for T, Initial residual = 0.0690801, Final residual = 0.00169577, No Iterations 1
ExecutionTime = 0.13 s  ClockTime = 0 s

Time = 21.5

Courant Number mean: 0.6825347 max: 4.493398
DICPCG:  Solving for p, Initial residual = 0.1004805, Final residual = 0.0007614952, No Iterations 5
DICPCG:  Solving for p, Initial residual = 0.0007323589, Final residual = 7.102755e-06, No Iterations 45
time step continuity errors : sum local = 0.4241589, global = 1.694066e-19, cumulative = 3.920654e-17
DICPCG:  Solving for p, Initial residual = 7.095668e-06, Final residual = 9.737646e-07, No Iterations 5
DICPCG:  Solving for p, Initial residual = 9.737649e-07, Final residual = 9.737649e-07, No Iterations 0
time step continuity errors : sum local = 0.4242758, global = 3.896352e-18, cumulative = 4.310289e-17
DICPCG:  Solving for p, Initial residual = 9.737649e-07, Final residual = 9.737649e-07, No Iterations 0
DICPCG:  Solving for p, Initial residual = 9.737649e-07, Final residual = 9.737649e-07, No Iterations 0
time step continuity errors : sum local = 0.4242758, global = 3.896352e-18, cumulative = 4.699924e-17
smoothSolver:  Solving for T, Initial residual = 0.0660131, Final residual = 0.001658131, No Iterations 1
ExecutionTime = 0.13 s  ClockTime = 0 s

Time = 22

Courant Number mean: 0.7302693 max: 4.739083
DICPCG:  Solving for p, Initial residual = 0.09608383, Final residual = 0.0008418032, No Iterations 5
DICPCG:  Solving for p, Initial residual = 0.0008131964, Final residual = 7.681667e-06, No Iterations 45
time step continuity errors : sum local = 0.4370541, global = -5.759824e-18, cumulative = 4.123942e-17
DICPCG:  Solving for p, Initial residual = 7.678872e-06, Final residual = 9.189739e-07, No Iterations 6
DICPCG:  Solving for p, Initial residual = 9.189739e-07, Final residual = 9.189739e-07, No Iterations 0
time step continuity errors : sum local = 0.4371417, global = -1.135024e-17, cumulative = 2.988918e-17
DICPCG:  Solving for p, Initial residual = 9.189739e-07, Final residual = 9.189739e-07, No Iterations 0
DICPCG:  Solving for p, Initial residual = 9.189739e-07, Final residual = 9.189739e-07, No Iterations 0
time step continuity errors : sum local = 0.4371417, global = -1.135024e-17, cumulative = 1.853894e-17
smoothSolver:  Solving for T, Initial residual = 0.0633166, Final residual = 0.00162296, No Iterations 1
ExecutionTime = 0.14 s  ClockTime = 0 s

Time = 22.5

Courant Number mean: 0.7772707 max: 4.945329
DICPCG:  Solving for p, Initial residual = 0.0928862, Final residual = 0.0007778205, No Iterations 5
DICPCG:  Solving for p, Initial residual = 0.0007553093, Final residual = 7.282782e-06, No Iterations 45
time step continuity errors : sum local = 0.446808, global = 5.082198e-19, cumulative = 1.904716e-17
DICPCG:  Solving for p, Initial residual = 7.280896e-06, Final residual = 8.437981e-07, No Iterations 6
DICPCG:  Solving for p, Initial residual = 8.437979e-07, Final residual = 8.437979e-07, No Iterations 0
time step continuity errors : sum local = 0.4468819, global = -1.118083e-17, cumulative = 7.866322e-18
DICPCG:  Solving for p, Initial residual = 8.437979e-07, Final residual = 8.437979e-07, No Iterations 0
DICPCG:  Solving for p, Initial residual = 8.437979e-07, Final residual = 8.437979e-07, No Iterations 0
time step continuity errors : sum local = 0.4468819, global = -1.118083e-17, cumulative = -3.314513e-18
smoothSolver:  Solving for T, Initial residual = 0.06099247, Final residual = 0.001571114, No Iterations 1
ExecutionTime = 0.14 s  ClockTime = 0 s

Time = 23

Courant Number mean: 0.8239967 max: 5.117096
DICPCG:  Solving for p, Initial residual = 0.09152175, Final residual = 0.0006889648, No Iterations 5
DICPCG:  Solving for p, Initial residual = 0.000670189, Final residual = 5.609911e-06, No Iterations 46
time step continuity errors : sum local = 0.4563439, global = -1.219727e-17, cumulative = -1.551179e-17
DICPCG:  Solving for p, Initial residual = 5.608189e-06, Final residual = 7.453424e-07, No Iterations 6
DICPCG:  Solving for p, Initial residual = 7.453424e-07, Final residual = 7.453424e-07, No Iterations 0
time step continuity errors : sum local = 0.4563831, global = -1.253609e-17, cumulative = -2.804787e-17
DICPCG:  Solving for p, Initial residual = 7.453424e-07, Final residual = 7.453424e-07, No Iterations 0
DICPCG:  Solving for p, Initial residual = 7.453424e-07, Final residual = 7.453424e-07, No Iterations 0
time step continuity errors : sum local = 0.4563831, global = -1.253609e-17, cumulative = -4.058396e-17
smoothSolver:  Solving for T, Initial residual = 0.05916464, Final residual = 0.001513448, No Iterations 1
ExecutionTime = 0.14 s  ClockTime = 0 s

Time = 23.5

Courant Number mean: 0.8715112 max: 5.26779
DICPCG:  Solving for p, Initial residual = 0.09298495, Final residual = 0.0009218482, No Iterations 4
DICPCG:  Solving for p, Initial residual = 0.0008959945, Final residual = 8.024528e-06, No Iterations 45
time step continuity errors : sum local = 0.4659108, global = -2.710505e-18, cumulative = -4.329447e-17
DICPCG:  Solving for p, Initial residual = 8.023326e-06, Final residual = 8.447161e-07, No Iterations 9
DICPCG:  Solving for p, Initial residual = 8.447157e-07, Final residual = 8.447157e-07, No Iterations 0
time step continuity errors : sum local = 0.4658591, global = -3.726945e-18, cumulative = -4.702141e-17
DICPCG:  Solving for p, Initial residual = 8.447157e-07, Final residual = 8.447157e-07, No Iterations 0
DICPCG:  Solving for p, Initial residual = 8.447157e-07, Final residual = 8.447157e-07, No Iterations 0
time step continuity errors : sum local = 0.4658591, global = -3.726945e-18, cumulative = -5.074836e-17
smoothSolver:  Solving for T, Initial residual = 0.05732682, Final residual = 0.001476077, No Iterations 1
ExecutionTime = 0.14 s  ClockTime = 0 s

Time = 24

Courant Number mean: 0.9199763 max: 5.404067
DICPCG:  Solving for p, Initial residual = 0.09198132, Final residual = 0.0008688904, No Iterations 4
DICPCG:  Solving for p, Initial residual = 0.0008441308, Final residual = 8.175308e-06, No Iterations 43
time step continuity errors : sum local = 0.4776464, global = 2.710505e-18, cumulative = -4.803785e-17
DICPCG:  Solving for p, Initial residual = 8.17378e-06, Final residual = 8.188569e-07, No Iterations 9
DICPCG:  Solving for p, Initial residual = 8.188568e-07, Final residual = 8.188568e-07, No Iterations 0
time step continuity errors : sum local = 0.4775985, global = -1.355253e-18, cumulative = -4.939311e-17
DICPCG:  Solving for p, Initial residual = 8.188568e-07, Final residual = 8.188568e-07, No Iterations 0
DICPCG:  Solving for p, Initial residual = 8.188568e-07, Final residual = 8.188568e-07, No Iterations 0
time step continuity errors : sum local = 0.4775985, global = -1.355253e-18, cumulative = -5.074836e-17
smoothSolver:  Solving for T, Initial residual = 0.05610166, Final residual = 0.00145073, No Iterations 1
ExecutionTime = 0.15 s  ClockTime = 0 s

Time = 24.5

Courant Number mean: 0.9693884 max: 5.528832
DICPCG:  Solving for p, Initial residual = 0.0895281, Final residual = 0.0007947239, No Iterations 4
DICPCG:  Solving for p, Initial residual = 0.0007725272, Final residual = 6.401395e-06, No Iterations 42
time step continuity errors : sum local = 0.4886391, global = 2.371692e-18, cumulative = -4.837667e-17
DICPCG:  Solving for p, Initial residual = 6.400523e-06, Final residual = 6.674032e-07, No Iterations 11
DICPCG:  Solving for p, Initial residual = 6.674033e-07, Final residual = 6.674033e-07, No Iterations 0
time step continuity errors : sum local = 0.4885835, global = 7.45389e-18, cumulative = -4.092278e-17
DICPCG:  Solving for p, Initial residual = 6.674033e-07, Final residual = 6.674033e-07, No Iterations 0
DICPCG:  Solving for p, Initial residual = 6.674033e-07, Final residual = 6.674033e-07, No Iterations 0
time step continuity errors : sum local = 0.4885835, global = 7.45389e-18, cumulative = -3.346889e-17
smoothSolver:  Solving for T, Initial residual = 0.05517604, Final residual = 0.001443118, No Iterations 1
ExecutionTime = 0.15 s  ClockTime = 0 s

Time = 25

Courant Number mean: 1.01743 max: 5.641572
DICPCG:  Solving for p, Initial residual = 0.08738749, Final residual = 0.0008406255, No Iterations 4
DICPCG:  Solving for p, Initial residual = 0.0008176855, Final residual = 6.180916e-06, No Iterations 45
time step continuity errors : sum local = 0.4993367, global = -3.388132e-18, cumulative = -3.685702e-17
DICPCG:  Solving for p, Initial residual = 6.178929e-06, Final residual = 7.521643e-07, No Iterations 7
DICPCG:  Solving for p, Initial residual = 7.52164e-07, Final residual = 7.52164e-07, No Iterations 0
time step continuity errors : sum local = 0.4993144, global = 1.694066e-18, cumulative = -3.516295e-17
DICPCG:  Solving for p, Initial residual = 7.52164e-07, Final residual = 7.52164e-07, No Iterations 0
DICPCG:  Solving for p, Initial residual = 7.52164e-07, Final residual = 7.52164e-07, No Iterations 0
time step continuity errors : sum local = 0.4993144, global = 1.694066e-18, cumulative = -3.346889e-17
smoothSolver:  Solving for T, Initial residual = 0.05414889, Final residual = 0.001443398, No Iterations 1
ExecutionTime = 0.16 s  ClockTime = 0 s

Time = 25.5

Courant Number mean: 1.065552 max: 5.740878
DICPCG:  Solving for p, Initial residual = 0.08653422, Final residual = 0.0007460889, No Iterations 4
DICPCG:  Solving for p, Initial residual = 0.0007247182, Final residual = 7.048901e-06, No Iterations 44
time step continuity errors : sum local = 0.5106647, global = 2.710505e-18, cumulative = -3.075838e-17
DICPCG:  Solving for p, Initial residual = 7.045798e-06, Final residual = 9.091174e-07, No Iterations 6
DICPCG:  Solving for p, Initial residual = 9.091179e-07, Final residual = 9.091179e-07, No Iterations 0
time step continuity errors : sum local = 0.5106527, global = 1.355253e-18, cumulative = -2.940313e-17
DICPCG:  Solving for p, Initial residual = 9.091179e-07, Final residual = 9.091179e-07, No Iterations 0
DICPCG:  Solving for p, Initial residual = 9.091179e-07, Final residual = 9.091179e-07, No Iterations 0
time step continuity errors : sum local = 0.5106527, global = 1.355253e-18, cumulative = -2.804787e-17
smoothSolver:  Solving for T, Initial residual = 0.05277888, Final residual = 0.00142078, No Iterations 1
ExecutionTime = 0.16 s  ClockTime = 0 s

Time = 26

Courant Number mean: 1.113697 max: 5.893609
DICPCG:  Solving for p, Initial residual = 0.08301885, Final residual = 0.0007395768, No Iterations 4
DICPCG:  Solving for p, Initial residual = 0.0007194562, Final residual = 5.527002e-06, No Iterations 47
time step continuity errors : sum local = 0.5214503, global = -1.185846e-17, cumulative = -3.990634e-17
DICPCG:  Solving for p, Initial residual = 5.525365e-06, Final residual = 8.668968e-07, No Iterations 6
DICPCG:  Solving for p, Initial residual = 8.668969e-07, Final residual = 8.668969e-07, No Iterations 0
time step continuity errors : sum local = 0.5213813, global = 1.151965e-17, cumulative = -2.838669e-17
DICPCG:  Solving for p, Initial residual = 8.668969e-07, Final residual = 8.668969e-07, No Iterations 0
DICPCG:  Solving for p, Initial residual = 8.668969e-07, Final residual = 8.668969e-07, No Iterations 0
time step continuity errors : sum local = 0.5213813, global = 1.151965e-17, cumulative = -1.686704e-17
smoothSolver:  Solving for T, Initial residual = 0.05147093, Final residual = 0.001398509, No Iterations 1
ExecutionTime = 0.16 s  ClockTime = 0 s

Time = 26.5

Courant Number mean: 1.162465 max: 6.052602
DICPCG:  Solving for p, Initial residual = 0.07835848, Final residual = 0.0005616598, No Iterations 5
DICPCG:  Solving for p, Initial residual = 0.0005481917, Final residual = 5.182119e-06, No Iterations 43
time step continuity errors : sum local = 0.5292518, global = -5.929231e-18, cumulative = -2.279627e-17
DICPCG:  Solving for p, Initial residual = 5.180797e-06, Final residual = 9.333237e-07, No Iterations 5
DICPCG:  Solving for p, Initial residual = 9.333239e-07, Final residual = 9.333239e-07, No Iterations 0
time step continuity errors : sum local = 0.5292575, global = 3.049319e-18, cumulative = -1.974695e-17
DICPCG:  Solving for p, Initial residual = 9.333239e-07, Final residual = 9.333239e-07, No Iterations 0
DICPCG:  Solving for p, Initial residual = 9.333239e-07, Final residual = 9.333239e-07, No Iterations 0
time step continuity errors : sum local = 0.5292575, global = 3.049319e-18, cumulative = -1.669763e-17
smoothSolver:  Solving for T, Initial residual = 0.04972497, Final residual = 0.0013481, No Iterations 1
ExecutionTime = 0.17 s  ClockTime = 0 s

Time = 27

Courant Number mean: 1.210877 max: 6.19309
DICPCG:  Solving for p, Initial residual = 0.07350527, Final residual = 0.0005258361, No Iterations 5
DICPCG:  Solving for p, Initial residual = 0.0005151138, Final residual = 5.140372e-06, No Iterations 41
time step continuity errors : sum local = 0.5334429, global = -8.131516e-18, cumulative = -2.482915e-17
DICPCG:  Solving for p, Initial residual = 5.139775e-06, Final residual = 9.96488e-07, No Iterations 10
DICPCG:  Solving for p, Initial residual = 9.964881e-07, Final residual = 9.964881e-07, No Iterations 0
time step continuity errors : sum local = 0.5334525, global = 3.557538e-18, cumulative = -2.127161e-17
DICPCG:  Solving for p, Initial residual = 9.964881e-07, Final residual = 9.964881e-07, No Iterations 0
DICPCG:  Solving for p, Initial residual = 9.964881e-07, Final residual = 9.964881e-07, No Iterations 0
time step continuity errors : sum local = 0.5334525, global = 3.557538e-18, cumulative = -1.771407e-17
smoothSolver:  Solving for T, Initial residual = 0.04814011, Final residual = 0.001307231, No Iterations 1
ExecutionTime = 0.17 s  ClockTime = 0 s

Time = 27.5

Courant Number mean: 1.257719 max: 6.328052
DICPCG:  Solving for p, Initial residual = 0.07007622, Final residual = 0.000535108, No Iterations 5
DICPCG:  Solving for p, Initial residual = 0.0005255878, Final residual = 4.443178e-06, No Iterations 42
time step continuity errors : sum local = 0.5375363, global = -1.423015e-17, cumulative = -3.194423e-17
DICPCG:  Solving for p, Initial residual = 4.442356e-06, Final residual = 8.654545e-07, No Iterations 9
DICPCG:  Solving for p, Initial residual = 8.654543e-07, Final residual = 8.654543e-07, No Iterations 0
time step continuity errors : sum local = 0.5375632, global = -7.115077e-18, cumulative = -3.90593e-17
DICPCG:  Solving for p, Initial residual = 8.654543e-07, Final residual = 8.654543e-07, No Iterations 0
DICPCG:  Solving for p, Initial residual = 8.654543e-07, Final residual = 8.654543e-07, No Iterations 0
time step continuity errors : sum local = 0.5375632, global = -7.115077e-18, cumulative = -4.617438e-17
smoothSolver:  Solving for T, Initial residual = 0.04701317, Final residual = 0.001280312, No Iterations 1
ExecutionTime = 0.17 s  ClockTime = 0 s

Time = 28

Courant Number mean: 1.304173 max: 6.450574
DICPCG:  Solving for p, Initial residual = 0.06891022, Final residual = 0.0005600478, No Iterations 5
DICPCG:  Solving for p, Initial residual = 0.0005517397, Final residual = 4.614105e-06, No Iterations 47
time step continuity errors : sum local = 0.5394068, global = 1.01644e-17, cumulative = -3.600998e-17
DICPCG:  Solving for p, Initial residual = 4.612911e-06, Final residual = 9.693432e-07, No Iterations 5
DICPCG:  Solving for p, Initial residual = 9.69343e-07, Final residual = 9.69343e-07, No Iterations 0
time step continuity errors : sum local = 0.5394416, global = 7.115077e-18, cumulative = -2.889491e-17
DICPCG:  Solving for p, Initial residual = 9.69343e-07, Final residual = 9.69343e-07, No Iterations 0
DICPCG:  Solving for p, Initial residual = 9.69343e-07, Final residual = 9.69343e-07, No Iterations 0
time step continuity errors : sum local = 0.5394416, global = 7.115077e-18, cumulative = -2.177983e-17
smoothSolver:  Solving for T, Initial residual = 0.04571274, Final residual = 0.00125922, No Iterations 1
ExecutionTime = 0.17 s  ClockTime = 0 s

Time = 28.5

Courant Number mean: 1.349814 max: 6.638585
DICPCG:  Solving for p, Initial residual = 0.06745931, Final residual = 0.0005490767, No Iterations 5
DICPCG:  Solving for p, Initial residual = 0.0005420567, Final residual = 3.907988e-06, No Iterations 47
time step continuity errors : sum local = 0.5397631, global = 6.776264e-19, cumulative = -2.11022e-17
DICPCG:  Solving for p, Initial residual = 3.906985e-06, Final residual = 9.672984e-07, No Iterations 4
DICPCG:  Solving for p, Initial residual = 9.672984e-07, Final residual = 9.672984e-07, No Iterations 0
time step continuity errors : sum local = 0.5398044, global = -6.776264e-19, cumulative = -2.177983e-17
DICPCG:  Solving for p, Initial residual = 9.672984e-07, Final residual = 9.672984e-07, No Iterations 0
DICPCG:  Solving for p, Initial residual = 9.672984e-07, Final residual = 9.672984e-07, No Iterations 0
time step continuity errors : sum local = 0.5398044, global = -6.776264e-19, cumulative = -2.245746e-17
smoothSolver:  Solving for T, Initial residual = 0.04455894, Final residual = 0.001239455, No Iterations 1
ExecutionTime = 0.17 s  ClockTime = 0 s

Time = 29

Courant Number mean: 1.395034 max: 7.07817
DICPCG:  Solving for p, Initial residual = 0.06579681, Final residual = 0.0005174705, No Iterations 5
DICPCG:  Solving for p, Initial residual = 0.000510421, Final residual = 4.017365e-06, No Iterations 44
time step continuity errors : sum local = 0.5414304, global = -5.759824e-18, cumulative = -2.821728e-17
DICPCG:  Solving for p, Initial residual = 4.016502e-06, Final residual = 7.583363e-07, No Iterations 8
DICPCG:  Solving for p, Initial residual = 7.583362e-07, Final residual = 7.583362e-07, No Iterations 0
time step continuity errors : sum local = 0.5414656, global = -5.759824e-18, cumulative = -3.397711e-17
DICPCG:  Solving for p, Initial residual = 7.583362e-07, Final residual = 7.583362e-07, No Iterations 0
DICPCG:  Solving for p, Initial residual = 7.583362e-07, Final residual = 7.583362e-07, No Iterations 0
time step continuity errors : sum local = 0.5414656, global = -5.759824e-18, cumulative = -3.973693e-17
smoothSolver:  Solving for T, Initial residual = 0.04383515, Final residual = 0.001234677, No Iterations 1
ExecutionTime = 0.18 s  ClockTime = 0 s

Time = 29.5

Courant Number mean: 1.438982 max: 7.499267
DICPCG:  Solving for p, Initial residual = 0.06398431, Final residual = 0.0005103311, No Iterations 5
DICPCG:  Solving for p, Initial residual = 0.0005044544, Final residual = 4.729506e-06, No Iterations 44
time step continuity errors : sum local = 0.541696, global = 1.321371e-17, cumulative = -2.652322e-17
DICPCG:  Solving for p, Initial residual = 4.72836e-06, Final residual = 8.238514e-07, No Iterations 8
DICPCG:  Solving for p, Initial residual = 8.238513e-07, Final residual = 8.238513e-07, No Iterations 0
time step continuity errors : sum local = 0.5417092, global = -7.45389e-18, cumulative = -3.397711e-17
DICPCG:  Solving for p, Initial residual = 8.238513e-07, Final residual = 8.238513e-07, No Iterations 0
DICPCG:  Solving for p, Initial residual = 8.238513e-07, Final residual = 8.238513e-07, No Iterations 0
time step continuity errors : sum local = 0.5417092, global = -7.45389e-18, cumulative = -4.1431e-17
smoothSolver:  Solving for T, Initial residual = 0.04297133, Final residual = 0.001231159, No Iterations 1
ExecutionTime = 0.18 s  ClockTime = 0 s

Time = 30

Courant Number mean: 1.482506 max: 7.897456
DICPCG:  Solving for p, Initial residual = 0.06333952, Final residual = 0.0005725819, No Iterations 5
DICPCG:  Solving for p, Initial residual = 0.0005674879, Final residual = 4.624247e-06, No Iterations 47
time step continuity errors : sum local = 0.5394718, global = 2.795209e-18, cumulative = -3.863579e-17
DICPCG:  Solving for p, Initial residual = 4.622333e-06, Final residual = 8.049577e-07, No Iterations 6
DICPCG:  Solving for p, Initial residual = 8.049578e-07, Final residual = 8.049578e-07, No Iterations 0
time step continuity errors : sum local = 0.5394486, global = 2.625802e-18, cumulative = -3.600998e-17
DICPCG:  Solving for p, Initial residual = 8.049578e-07, Final residual = 8.049578e-07, No Iterations 0
DICPCG:  Solving for p, Initial residual = 8.049578e-07, Final residual = 8.049578e-07, No Iterations 0
time step continuity errors : sum local = 0.5394486, global = 2.625802e-18, cumulative = -3.338418e-17
smoothSolver:  Solving for T, Initial residual = 0.04212367, Final residual = 0.001229566, No Iterations 1
ExecutionTime = 0.19 s  ClockTime = 0 s

Time = 30.5

Courant Number mean: 1.526043 max: 8.257329
DICPCG:  Solving for p, Initial residual = 0.06337141, Final residual = 0.0005674926, No Iterations 5
DICPCG:  Solving for p, Initial residual = 0.000563773, Final residual = 4.992899e-06, No Iterations 46
time step continuity errors : sum local = 0.5350987, global = -9.402066e-18, cumulative = -4.278625e-17
DICPCG:  Solving for p, Initial residual = 4.990391e-06, Final residual = 8.285686e-07, No Iterations 7
DICPCG:  Solving for p, Initial residual = 8.285687e-07, Final residual = 8.285687e-07, No Iterations 0
time step continuity errors : sum local = 0.5350845, global = 6.69156e-18, cumulative = -3.609469e-17
DICPCG:  Solving for p, Initial residual = 8.285687e-07, Final residual = 8.285687e-07, No Iterations 0
DICPCG:  Solving for p, Initial residual = 8.285687e-07, Final residual = 8.285687e-07, No Iterations 0
time step continuity errors : sum local = 0.5350845, global = 6.69156e-18, cumulative = -2.940313e-17
smoothSolver:  Solving for T, Initial residual = 0.04148792, Final residual = 0.001223123, No Iterations 1
ExecutionTime = 0.19 s  ClockTime = 0 s

Time = 31

Courant Number mean: 1.56881 max: 8.562803
DICPCG:  Solving for p, Initial residual = 0.06365987, Final residual = 0.0006003439, No Iterations 4
DICPCG:  Solving for p, Initial residual = 0.0005956672, Final residual = 5.584209e-06, No Iterations 44
time step continuity errors : sum local = 0.5318885, global = 8.300923e-18, cumulative = -2.11022e-17
DICPCG:  Solving for p, Initial residual = 5.582102e-06, Final residual = 9.50632e-07, No Iterations 9
DICPCG:  Solving for p, Initial residual = 9.506318e-07, Final residual = 9.506318e-07, No Iterations 0
time step continuity errors : sum local = 0.5318448, global = -6.776264e-18, cumulative = -2.787847e-17
DICPCG:  Solving for p, Initial residual = 9.506318e-07, Final residual = 9.506318e-07, No Iterations 0
DICPCG:  Solving for p, Initial residual = 9.506318e-07, Final residual = 9.506318e-07, No Iterations 0
time step continuity errors : sum local = 0.5318448, global = -6.776264e-18, cumulative = -3.465473e-17
smoothSolver:  Solving for T, Initial residual = 0.04083641, Final residual = 0.001211904, No Iterations 1
ExecutionTime = 0.19 s  ClockTime = 0 s

Time = 31.5

Courant Number mean: 1.61128 max: 8.828491
DICPCG:  Solving for p, Initial residual = 0.06172218, Final residual = 0.0006075462, No Iterations 3
DICPCG:  Solving for p, Initial residual = 0.0006022112, Final residual = 4.862518e-06, No Iterations 44
time step continuity errors : sum local = 0.5298926, global = -1.423015e-17, cumulative = -4.888489e-17
DICPCG:  Solving for p, Initial residual = 4.86026e-06, Final residual = 8.797191e-07, No Iterations 4
DICPCG:  Solving for p, Initial residual = 8.797194e-07, Final residual = 8.797194e-07, No Iterations 0
time step continuity errors : sum local = 0.5299355, global = -6.94567e-18, cumulative = -5.583056e-17
DICPCG:  Solving for p, Initial residual = 8.797194e-07, Final residual = 8.797194e-07, No Iterations 0
DICPCG:  Solving for p, Initial residual = 8.797194e-07, Final residual = 8.797194e-07, No Iterations 0
time step continuity errors : sum local = 0.5299355, global = -6.94567e-18, cumulative = -6.277623e-17
smoothSolver:  Solving for T, Initial residual = 0.04010055, Final residual = 0.001193389, No Iterations 1
ExecutionTime = 0.19 s  ClockTime = 0 s

Time = 32

Courant Number mean: 1.652708 max: 9.059755
DICPCG:  Solving for p, Initial residual = 0.05882773, Final residual = 0.0005035265, No Iterations 5
DICPCG:  Solving for p, Initial residual = 0.0004998892, Final residual = 3.649172e-06, No Iterations 41
time step continuity errors : sum local = 0.5281772, global = 3.388132e-18, cumulative = -5.938809e-17
DICPCG:  Solving for p, Initial residual = 3.646758e-06, Final residual = 8.859077e-07, No Iterations 9
DICPCG:  Solving for p, Initial residual = 8.859076e-07, Final residual = 8.859076e-07, No Iterations 0
time step continuity errors : sum local = 0.5281883, global = -1.321371e-17, cumulative = -7.260181e-17
DICPCG:  Solving for p, Initial residual = 8.859076e-07, Final residual = 8.859076e-07, No Iterations 0
DICPCG:  Solving for p, Initial residual = 8.859076e-07, Final residual = 8.859076e-07, No Iterations 0
time step continuity errors : sum local = 0.5281883, global = -1.321371e-17, cumulative = -8.581552e-17
smoothSolver:  Solving for T, Initial residual = 0.03933979, Final residual = 0.001172268, No Iterations 1
ExecutionTime = 0.2 s  ClockTime = 0 s

Time = 32.5

Courant Number mean: 1.693594 max: 9.252076
DICPCG:  Solving for p, Initial residual = 0.05800631, Final residual = 0.0005099179, No Iterations 5
DICPCG:  Solving for p, Initial residual = 0.0005058684, Final residual = 4.782012e-06, No Iterations 45
time step continuity errors : sum local = 0.5274656, global = -2.371692e-18, cumulative = -8.818721e-17
DICPCG:  Solving for p, Initial residual = 4.777322e-06, Final residual = 9.921385e-07, No Iterations 6
DICPCG:  Solving for p, Initial residual = 9.921388e-07, Final residual = 9.921388e-07, No Iterations 0
time step continuity errors : sum local = 0.5274375, global = 2.032879e-18, cumulative = -8.615433e-17
DICPCG:  Solving for p, Initial residual = 9.921388e-07, Final residual = 9.921388e-07, No Iterations 0
DICPCG:  Solving for p, Initial residual = 9.921388e-07, Final residual = 9.921388e-07, No Iterations 0
time step continuity errors : sum local = 0.5274375, global = 2.032879e-18, cumulative = -8.412146e-17
smoothSolver:  Solving for T, Initial residual = 0.03863195, Final residual = 0.001157165, No Iterations 1
ExecutionTime = 0.2 s  ClockTime = 0 s

Time = 33

Courant Number mean: 1.734034 max: 9.401671
DICPCG:  Solving for p, Initial residual = 0.05940681, Final residual = 0.0005688172, No Iterations 5
DICPCG:  Solving for p, Initial residual = 0.000565435, Final residual = 3.834364e-06, No Iterations 46
time step continuity errors : sum local = 0.5242454, global = 4.065758e-18, cumulative = -8.00557e-17
DICPCG:  Solving for p, Initial residual = 3.829512e-06, Final residual = 9.973412e-07, No Iterations 4
DICPCG:  Solving for p, Initial residual = 9.973408e-07, Final residual = 9.973408e-07, No Iterations 0
time step continuity errors : sum local = 0.5242983, global = -4.235165e-18, cumulative = -8.429086e-17
DICPCG:  Solving for p, Initial residual = 9.973408e-07, Final residual = 9.973408e-07, No Iterations 0
DICPCG:  Solving for p, Initial residual = 9.973408e-07, Final residual = 9.973408e-07, No Iterations 0
time step continuity errors : sum local = 0.5242983, global = -4.235165e-18, cumulative = -8.852603e-17
smoothSolver:  Solving for T, Initial residual = 0.03800407, Final residual = 0.001143634, No Iterations 1
ExecutionTime = 0.2 s  ClockTime = 0 s

Time = 33.5

Courant Number mean: 1.773708 max: 9.506395
DICPCG:  Solving for p, Initial residual = 0.06010198, Final residual = 0.0004962853, No Iterations 4
DICPCG:  Solving for p, Initial residual = 0.0004934657, Final residual = 4.681919e-06, No Iterations 46
time step continuity errors : sum local = 0.521231, global = -9.740879e-19, cumulative = -8.950012e-17
DICPCG:  Solving for p, Initial residual = 4.678341e-06, Final residual = 9.788507e-07, No Iterations 4
DICPCG:  Solving for p, Initial residual = 9.78851e-07, Final residual = 9.78851e-07, No Iterations 0
time step continuity errors : sum local = 0.521256, global = -4.743385e-18, cumulative = -9.42435e-17
DICPCG:  Solving for p, Initial residual = 9.78851e-07, Final residual = 9.78851e-07, No Iterations 0
DICPCG:  Solving for p, Initial residual = 9.78851e-07, Final residual = 9.78851e-07, No Iterations 0
time step continuity errors : sum local = 0.521256, global = -4.743385e-18, cumulative = -9.898688e-17
smoothSolver:  Solving for T, Initial residual = 0.03750862, Final residual = 0.001133958, No Iterations 1
ExecutionTime = 0.2 s  ClockTime = 0 s

Time = 34

Courant Number mean: 1.814479 max: 9.570559
DICPCG:  Solving for p, Initial residual = 0.05741812, Final residual = 0.0005644302, No Iterations 3
DICPCG:  Solving for p, Initial residual = 0.0005610673, Final residual = 4.68293e-06, No Iterations 40
time step continuity errors : sum local = 0.5178733, global = -2.879912e-18, cumulative = -1.018668e-16
DICPCG:  Solving for p, Initial residual = 4.680756e-06, Final residual = 9.145726e-07, No Iterations 9
DICPCG:  Solving for p, Initial residual = 9.145727e-07, Final residual = 9.145727e-07, No Iterations 0
time step continuity errors : sum local = 0.5179201, global = 6.776264e-19, cumulative = -1.011892e-16
DICPCG:  Solving for p, Initial residual = 9.145727e-07, Final residual = 9.145727e-07, No Iterations 0
DICPCG:  Solving for p, Initial residual = 9.145727e-07, Final residual = 9.145727e-07, No Iterations 0
time step continuity errors : sum local = 0.5179201, global = 6.776264e-19, cumulative = -1.005115e-16
smoothSolver:  Solving for T, Initial residual = 0.03696902, Final residual = 0.001117616, No Iterations 1
ExecutionTime = 0.21 s  ClockTime = 0 s

Time = 34.5

Courant Number mean: 1.854244 max: 9.598323
DICPCG:  Solving for p, Initial residual = 0.0550367, Final residual = 0.0005274639, No Iterations 4
DICPCG:  Solving for p, Initial residual = 0.0005255766, Final residual = 4.314081e-06, No Iterations 47
time step continuity errors : sum local = 0.5140378, global = -3.388132e-19, cumulative = -1.008504e-16
DICPCG:  Solving for p, Initial residual = 4.31274e-06, Final residual = 9.309552e-07, No Iterations 5
DICPCG:  Solving for p, Initial residual = 9.309551e-07, Final residual = 9.309551e-07, No Iterations 0
time step continuity errors : sum local = 0.5140305, global = -3.049319e-18, cumulative = -1.038997e-16
DICPCG:  Solving for p, Initial residual = 9.309551e-07, Final residual = 9.309551e-07, No Iterations 0
DICPCG:  Solving for p, Initial residual = 9.309551e-07, Final residual = 9.309551e-07, No Iterations 0
time step continuity errors : sum local = 0.5140305, global = -3.049319e-18, cumulative = -1.06949e-16
smoothSolver:  Solving for T, Initial residual = 0.03638823, Final residual = 0.001100224, No Iterations 1
ExecutionTime = 0.21 s  ClockTime = 0 s

Time = 35

Courant Number mean: 1.892746 max: 9.593263
DICPCG:  Solving for p, Initial residual = 0.05425068, Final residual = 0.0004540446, No Iterations 6
DICPCG:  Solving for p, Initial residual = 0.0004535363, Final residual = 3.660185e-06, No Iterations 46
time step continuity errors : sum local = 0.5088241, global = 3.388132e-19, cumulative = -1.066102e-16
DICPCG:  Solving for p, Initial residual = 3.659002e-06, Final residual = 9.990373e-07, No Iterations 4
DICPCG:  Solving for p, Initial residual = 9.990374e-07, Final residual = 9.990374e-07, No Iterations 0
[...]
DICPCG:  Solving for p, Initial residual = 9.362526e-07, Final residual = 9.362526e-07, No Iterations 0
time step continuity errors : sum local = 0.4451011, global = 1.01644e-18, cumulative = -1.490104e-15
DICPCG:  Solving for p, Initial residual = 9.362526e-07, Final residual = 9.362526e-07, No Iterations 0
DICPCG:  Solving for p, Initial residual = 9.362526e-07, Final residual = 9.362526e-07, No Iterations 0
time step continuity errors : sum local = 0.4451011, global = 1.01644e-18, cumulative = -1.489087e-15
smoothSolver:  Solving for T, Initial residual = 0.01638887, Final residual = 0.0007082595, No Iterations 1
ExecutionTime = 1.14 s  ClockTime = 1 s

Time = 192

Courant Number mean: 6.656847 max: 35.02164
DICPCG:  Solving for p, Initial residual = 0.02384675, Final residual = 0.0002141071, No Iterations 7
DICPCG:  Solving for p, Initial residual = 0.0002132778, Final residual = 1.623657e-06, No Iterations 49
time step continuity errors : sum local = 0.4469735, global = -5.166901e-17, cumulative = -1.540756e-15
DICPCG:  Solving for p, Initial residual = 1.623832e-06, Final residual = 9.169677e-07, No Iterations 1
DICPCG:  Solving for p, Initial residual = 9.169678e-07, Final residual = 9.169678e-07, No Iterations 0
time step continuity errors : sum local = 0.4469622, global = 3.049319e-18, cumulative = -1.537707e-15
DICPCG:  Solving for p, Initial residual = 9.169678e-07, Final residual = 9.169678e-07, No Iterations 0
DICPCG:  Solving for p, Initial residual = 9.169678e-07, Final residual = 9.169678e-07, No Iterations 0
time step continuity errors : sum local = 0.4469622, global = 3.049319e-18, cumulative = -1.534657e-15
smoothSolver:  Solving for T, Initial residual = 0.01635845, Final residual = 0.0007073459, No Iterations 1
ExecutionTime = 1.14 s  ClockTime = 1 s

Time = 192.5

Courant Number mean: 6.661429 max: 35.06395
DICPCG:  Solving for p, Initial residual = 0.02250468, Final residual = 0.0001714991, No Iterations 7
DICPCG:  Solving for p, Initial residual = 0.0001710334, Final residual = 1.47419e-06, No Iterations 49
time step continuity errors : sum local = 0.4479218, global = 9.825582e-18, cumulative = -1.524832e-15
DICPCG:  Solving for p, Initial residual = 1.474368e-06, Final residual = 8.883461e-07, No Iterations 1
DICPCG:  Solving for p, Initial residual = 8.883461e-07, Final residual = 8.883461e-07, No Iterations 0
time step continuity errors : sum local = 0.447911, global = -1.507719e-17, cumulative = -1.539909e-15
DICPCG:  Solving for p, Initial residual = 8.883461e-07, Final residual = 8.883461e-07, No Iterations 0
DICPCG:  Solving for p, Initial residual = 8.883461e-07, Final residual = 8.883461e-07, No Iterations 0
time step continuity errors : sum local = 0.447911, global = -1.507719e-17, cumulative = -1.554986e-15
smoothSolver:  Solving for T, Initial residual = 0.0163195, Final residual = 0.0007060255, No Iterations 1
ExecutionTime = 1.14 s  ClockTime = 1 s

Time = 193

Courant Number mean: 6.665272 max: 35.09237
DICPCG:  Solving for p, Initial residual = 0.02182881, Final residual = 0.0001763072, No Iterations 7
DICPCG:  Solving for p, Initial residual = 0.0001759759, Final residual = 1.755462e-06, No Iterations 41
time step continuity errors : sum local = 0.4485081, global = 4.963613e-17, cumulative = -1.50535e-15
DICPCG:  Solving for p, Initial residual = 1.755659e-06, Final residual = 9.166831e-07, No Iterations 4
DICPCG:  Solving for p, Initial residual = 9.16683e-07, Final residual = 9.16683e-07, No Iterations 0
time step continuity errors : sum local = 0.4484993, global = -1.236668e-17, cumulative = -1.517717e-15
DICPCG:  Solving for p, Initial residual = 9.16683e-07, Final residual = 9.16683e-07, No Iterations 0
DICPCG:  Solving for p, Initial residual = 9.16683e-07, Final residual = 9.16683e-07, No Iterations 0
time step continuity errors : sum local = 0.4484993, global = -1.236668e-17, cumulative = -1.530083e-15
smoothSolver:  Solving for T, Initial residual = 0.01633958, Final residual = 0.0007077547, No Iterations 1
ExecutionTime = 1.15 s  ClockTime = 1 s

Time = 193.5

Courant Number mean: 6.669283 max: 35.1078
DICPCG:  Solving for p, Initial residual = 0.02186951, Final residual = 0.0001627981, No Iterations 7
DICPCG:  Solving for p, Initial residual = 0.0001625871, Final residual = 1.457845e-06, No Iterations 49
time step continuity errors : sum local = 0.4486854, global = -6.081697e-17, cumulative = -1.5909e-15
DICPCG:  Solving for p, Initial residual = 1.458003e-06, Final residual = 7.808215e-07, No Iterations 1
DICPCG:  Solving for p, Initial residual = 7.808215e-07, Final residual = 7.808215e-07, No Iterations 0
time step continuity errors : sum local = 0.448677, global = -2.727446e-17, cumulative = -1.618175e-15
DICPCG:  Solving for p, Initial residual = 7.808215e-07, Final residual = 7.808215e-07, No Iterations 0
DICPCG:  Solving for p, Initial residual = 7.808215e-07, Final residual = 7.808215e-07, No Iterations 0
time step continuity errors : sum local = 0.448677, global = -2.727446e-17, cumulative = -1.645449e-15
smoothSolver:  Solving for T, Initial residual = 0.01635634, Final residual = 0.0007090107, No Iterations 1
ExecutionTime = 1.15 s  ClockTime = 1 s

Time = 194

Courant Number mean: 6.672556 max: 35.11106
DICPCG:  Solving for p, Initial residual = 0.02205194, Final residual = 0.0001832128, No Iterations 7
DICPCG:  Solving for p, Initial residual = 0.0001831042, Final residual = 1.655882e-06, No Iterations 46
time step continuity errors : sum local = 0.4487963, global = -2.168404e-17, cumulative = -1.667133e-15
DICPCG:  Solving for p, Initial residual = 1.656042e-06, Final residual = 7.634727e-07, No Iterations 5
DICPCG:  Solving for p, Initial residual = 7.634727e-07, Final residual = 7.634727e-07, No Iterations 0
time step continuity errors : sum local = 0.4487897, global = 4.235165e-18, cumulative = -1.662898e-15
DICPCG:  Solving for p, Initial residual = 7.634727e-07, Final residual = 7.634727e-07, No Iterations 0
DICPCG:  Solving for p, Initial residual = 7.634727e-07, Final residual = 7.634727e-07, No Iterations 0
time step continuity errors : sum local = 0.4487897, global = 4.235165e-18, cumulative = -1.658663e-15
smoothSolver:  Solving for T, Initial residual = 0.01643181, Final residual = 0.0007108833, No Iterations 1
ExecutionTime = 1.15 s  ClockTime = 1 s

Time = 194.5

Courant Number mean: 6.675149 max: 35.10368
DICPCG:  Solving for p, Initial residual = 0.02229165, Final residual = 0.0001866206, No Iterations 8
DICPCG:  Solving for p, Initial residual = 0.0001866062, Final residual = 1.786572e-06, No Iterations 48
time step continuity errors : sum local = 0.4488195, global = -1.711007e-17, cumulative = -1.675773e-15
DICPCG:  Solving for p, Initial residual = 1.786722e-06, Final residual = 7.284684e-07, No Iterations 2
DICPCG:  Solving for p, Initial residual = 7.284684e-07, Final residual = 7.284684e-07, No Iterations 0
time step continuity errors : sum local = 0.4488125, global = -1.524659e-18, cumulative = -1.677298e-15
DICPCG:  Solving for p, Initial residual = 7.284684e-07, Final residual = 7.284684e-07, No Iterations 0
DICPCG:  Solving for p, Initial residual = 7.284684e-07, Final residual = 7.284684e-07, No Iterations 0
time step continuity errors : sum local = 0.4488125, global = -1.524659e-18, cumulative = -1.678822e-15
smoothSolver:  Solving for T, Initial residual = 0.01649987, Final residual = 0.0007134813, No Iterations 1
ExecutionTime = 1.16 s  ClockTime = 1 s

Time = 195

Courant Number mean: 6.677451 max: 35.08636
DICPCG:  Solving for p, Initial residual = 0.02210708, Final residual = 0.0002121319, No Iterations 7
DICPCG:  Solving for p, Initial residual = 0.0002122448, Final residual = 1.470425e-06, No Iterations 45
time step continuity errors : sum local = 0.4484293, global = 9.486769e-18, cumulative = -1.669336e-15
DICPCG:  Solving for p, Initial residual = 1.47054e-06, Final residual = 7.119923e-07, No Iterations 1
DICPCG:  Solving for p, Initial residual = 7.119923e-07, Final residual = 7.119923e-07, No Iterations 0
time step continuity errors : sum local = 0.4484228, global = -7.96211e-18, cumulative = -1.677298e-15
DICPCG:  Solving for p, Initial residual = 7.119923e-07, Final residual = 7.119923e-07, No Iterations 0
DICPCG:  Solving for p, Initial residual = 7.119923e-07, Final residual = 7.119923e-07, No Iterations 0
time step continuity errors : sum local = 0.4484228, global = -7.96211e-18, cumulative = -1.68526e-15
smoothSolver:  Solving for T, Initial residual = 0.01652084, Final residual = 0.0007141778, No Iterations 1
ExecutionTime = 1.16 s  ClockTime = 1 s

Time = 195.5

Courant Number mean: 6.679732 max: 35.05969
DICPCG:  Solving for p, Initial residual = 0.02194016, Final residual = 0.0001823111, No Iterations 7
DICPCG:  Solving for p, Initial residual = 0.0001824628, Final residual = 1.348238e-06, No Iterations 49
time step continuity errors : sum local = 0.447563, global = 5.759824e-18, cumulative = -1.6795e-15
DICPCG:  Solving for p, Initial residual = 1.348359e-06, Final residual = 6.669809e-07, No Iterations 1
DICPCG:  Solving for p, Initial residual = 6.669809e-07, Final residual = 6.669809e-07, No Iterations 0
time step continuity errors : sum local = 0.4475583, global = -2.185345e-17, cumulative = -1.701354e-15
DICPCG:  Solving for p, Initial residual = 6.669809e-07, Final residual = 6.669809e-07, No Iterations 0
DICPCG:  Solving for p, Initial residual = 6.669809e-07, Final residual = 6.669809e-07, No Iterations 0
time step continuity errors : sum local = 0.4475583, global = -2.185345e-17, cumulative = -1.723207e-15
smoothSolver:  Solving for T, Initial residual = 0.016528, Final residual = 0.0007155717, No Iterations 1
ExecutionTime = 1.16 s  ClockTime = 1 s

Time = 196

Courant Number mean: 6.680586 max: 35.02414
DICPCG:  Solving for p, Initial residual = 0.02217204, Final residual = 0.0001866722, No Iterations 7
DICPCG:  Solving for p, Initial residual = 0.0001870219, Final residual = 1.406174e-06, No Iterations 49
time step continuity errors : sum local = 0.4462398, global = 4.235165e-18, cumulative = -1.718972e-15
DICPCG:  Solving for p, Initial residual = 1.406291e-06, Final residual = 7.011905e-07, No Iterations 1
DICPCG:  Solving for p, Initial residual = 7.011905e-07, Final residual = 7.011905e-07, No Iterations 0
time step continuity errors : sum local = 0.4462331, global = 1.79571e-17, cumulative = -1.701015e-15
DICPCG:  Solving for p, Initial residual = 7.011905e-07, Final residual = 7.011905e-07, No Iterations 0
DICPCG:  Solving for p, Initial residual = 7.011905e-07, Final residual = 7.011905e-07, No Iterations 0
time step continuity errors : sum local = 0.4462331, global = 1.79571e-17, cumulative = -1.683058e-15
smoothSolver:  Solving for T, Initial residual = 0.0165745, Final residual = 0.000718249, No Iterations 1
ExecutionTime = 1.16 s  ClockTime = 1 s

Time = 196.5

Courant Number mean: 6.680807 max: 34.98137
DICPCG:  Solving for p, Initial residual = 0.02274417, Final residual = 0.0001993518, No Iterations 7
DICPCG:  Solving for p, Initial residual = 0.0001998478, Final residual = 1.995781e-06, No Iterations 43
time step continuity errors : sum local = 0.4448191, global = -2.744387e-17, cumulative = -1.710501e-15
DICPCG:  Solving for p, Initial residual = 1.996031e-06, Final residual = 7.710501e-07, No Iterations 4
DICPCG:  Solving for p, Initial residual = 7.710501e-07, Final residual = 7.710501e-07, No Iterations 0
time step continuity errors : sum local = 0.4448079, global = 1.28749e-17, cumulative = -1.697627e-15
DICPCG:  Solving for p, Initial residual = 7.710501e-07, Final residual = 7.710501e-07, No Iterations 0
DICPCG:  Solving for p, Initial residual = 7.710501e-07, Final residual = 7.710501e-07, No Iterations 0
time step continuity errors : sum local = 0.4448079, global = 1.28749e-17, cumulative = -1.684752e-15
smoothSolver:  Solving for T, Initial residual = 0.0166766, Final residual = 0.0007226762, No Iterations 1
ExecutionTime = 1.17 s  ClockTime = 1 s

Time = 197

Courant Number mean: 6.681329 max: 34.93161
DICPCG:  Solving for p, Initial residual = 0.02326206, Final residual = 0.0002004718, No Iterations 8
DICPCG:  Solving for p, Initial residual = 0.0002008414, Final residual = 1.632549e-06, No Iterations 41
time step continuity errors : sum local = 0.4440771, global = -3.489776e-17, cumulative = -1.719649e-15
DICPCG:  Solving for p, Initial residual = 1.632744e-06, Final residual = 9.671488e-07, No Iterations 1
DICPCG:  Solving for p, Initial residual = 9.671488e-07, Final residual = 9.671488e-07, No Iterations 0
time step continuity errors : sum local = 0.4440703, global = 2.981556e-17, cumulative = -1.689834e-15
DICPCG:  Solving for p, Initial residual = 9.671488e-07, Final residual = 9.671488e-07, No Iterations 0
DICPCG:  Solving for p, Initial residual = 9.671488e-07, Final residual = 9.671488e-07, No Iterations 0
time step continuity errors : sum local = 0.4440703, global = 2.981556e-17, cumulative = -1.660018e-15
smoothSolver:  Solving for T, Initial residual = 0.01683874, Final residual = 0.0007277174, No Iterations 1
ExecutionTime = 1.17 s  ClockTime = 1 s

Time = 197.5

Courant Number mean: 6.681884 max: 34.87575
DICPCG:  Solving for p, Initial residual = 0.02414673, Final residual = 0.0002205082, No Iterations 8
DICPCG:  Solving for p, Initial residual = 0.0002208311, Final residual = 2.090845e-06, No Iterations 45
time step continuity errors : sum local = 0.4435054, global = 1.524659e-17, cumulative = -1.644772e-15
DICPCG:  Solving for p, Initial residual = 2.091117e-06, Final residual = 9.335018e-07, No Iterations 4
DICPCG:  Solving for p, Initial residual = 9.335018e-07, Final residual = 9.335018e-07, No Iterations 0
time step continuity errors : sum local = 0.4434959, global = 2.541099e-18, cumulative = -1.642231e-15
DICPCG:  Solving for p, Initial residual = 9.335018e-07, Final residual = 9.335018e-07, No Iterations 0
DICPCG:  Solving for p, Initial residual = 9.335018e-07, Final residual = 9.335018e-07, No Iterations 0
time step continuity errors : sum local = 0.4434959, global = 2.541099e-18, cumulative = -1.63969e-15
smoothSolver:  Solving for T, Initial residual = 0.01698499, Final residual = 0.0007325879, No Iterations 1
ExecutionTime = 1.17 s  ClockTime = 1 s

Time = 198

Courant Number mean: 6.682191 max: 34.8145
DICPCG:  Solving for p, Initial residual = 0.0244655, Final residual = 0.0002095355, No Iterations 8
DICPCG:  Solving for p, Initial residual = 0.0002097066, Final residual = 1.91808e-06, No Iterations 47
time step continuity errors : sum local = 0.4436847, global = 3.286488e-17, cumulative = -1.606825e-15
DICPCG:  Solving for p, Initial residual = 1.918195e-06, Final residual = 8.455539e-07, No Iterations 2
DICPCG:  Solving for p, Initial residual = 8.455539e-07, Final residual = 8.455539e-07, No Iterations 0
time step continuity errors : sum local = 0.4436777, global = 3.506716e-17, cumulative = -1.571757e-15
DICPCG:  Solving for p, Initial residual = 8.455539e-07, Final residual = 8.455539e-07, No Iterations 0
DICPCG:  Solving for p, Initial residual = 8.455539e-07, Final residual = 8.455539e-07, No Iterations 0
time step continuity errors : sum local = 0.4436777, global = 3.506716e-17, cumulative = -1.53669e-15
smoothSolver:  Solving for T, Initial residual = 0.0171088, Final residual = 0.0007350602, No Iterations 1
ExecutionTime = 1.18 s  ClockTime = 1 s

Time = 198.5

Courant Number mean: 6.682623 max: 34.75
DICPCG:  Solving for p, Initial residual = 0.0245827, Final residual = 0.0002140774, No Iterations 7
DICPCG:  Solving for p, Initial residual = 0.0002141113, Final residual = 2.04181e-06, No Iterations 46
time step continuity errors : sum local = 0.4440586, global = 4.235165e-18, cumulative = -1.532455e-15
DICPCG:  Solving for p, Initial residual = 2.041946e-06, Final residual = 8.584908e-07, No Iterations 4
DICPCG:  Solving for p, Initial residual = 8.584909e-07, Final residual = 8.584909e-07, No Iterations 0
time step continuity errors : sum local = 0.4440473, global = -2.524158e-17, cumulative = -1.557697e-15
DICPCG:  Solving for p, Initial residual = 8.584909e-07, Final residual = 8.584909e-07, No Iterations 0
DICPCG:  Solving for p, Initial residual = 8.584909e-07, Final residual = 8.584909e-07, No Iterations 0
time step continuity errors : sum local = 0.4440473, global = -2.524158e-17, cumulative = -1.582938e-15
smoothSolver:  Solving for T, Initial residual = 0.01720065, Final residual = 0.0007364894, No Iterations 1
ExecutionTime = 1.18 s  ClockTime = 1 s

Time = 199

Courant Number mean: 6.681574 max: 34.68077
DICPCG:  Solving for p, Initial residual = 0.02450037, Final residual = 0.0002296857, No Iterations 7
DICPCG:  Solving for p, Initial residual = 0.0002298845, Final residual = 2.020546e-06, No Iterations 27
time step continuity errors : sum local = 0.4446322, global = 1.067262e-17, cumulative = -1.572266e-15
DICPCG:  Solving for p, Initial residual = 2.020561e-06, Final residual = 9.318327e-07, No Iterations 28
DICPCG:  Solving for p, Initial residual = 9.31839e-07, Final residual = 9.31839e-07, No Iterations 0
time step continuity errors : sum local = 0.4446225, global = -1.253609e-17, cumulative = -1.584802e-15
DICPCG:  Solving for p, Initial residual = 9.31839e-07, Final residual = 9.31839e-07, No Iterations 0
DICPCG:  Solving for p, Initial residual = 9.31839e-07, Final residual = 9.31839e-07, No Iterations 0
time step continuity errors : sum local = 0.4446225, global = -1.253609e-17, cumulative = -1.597338e-15
smoothSolver:  Solving for T, Initial residual = 0.01727544, Final residual = 0.0007371326, No Iterations 1
ExecutionTime = 1.18 s  ClockTime = 1 s

Time = 199.5

Courant Number mean: 6.680415 max: 34.60942
DICPCG:  Solving for p, Initial residual = 0.02474147, Final residual = 0.0002034711, No Iterations 7
DICPCG:  Solving for p, Initial residual = 0.0002035238, Final residual = 1.487511e-06, No Iterations 42
time step continuity errors : sum local = 0.4455344, global = -1.694066e-18, cumulative = -1.599032e-15
DICPCG:  Solving for p, Initial residual = 1.487542e-06, Final residual = 9.123515e-07, No Iterations 8
DICPCG:  Solving for p, Initial residual = 9.123515e-07, Final residual = 9.123515e-07, No Iterations 0
time step continuity errors : sum local = 0.4455274, global = 1.626303e-17, cumulative = -1.582769e-15
DICPCG:  Solving for p, Initial residual = 9.123515e-07, Final residual = 9.123515e-07, No Iterations 0
DICPCG:  Solving for p, Initial residual = 9.123515e-07, Final residual = 9.123515e-07, No Iterations 0
time step continuity errors : sum local = 0.4455274, global = 1.626303e-17, cumulative = -1.566506e-15
smoothSolver:  Solving for T, Initial residual = 0.01731728, Final residual = 0.0007382972, No Iterations 1
ExecutionTime = 1.18 s  ClockTime = 1 s

Time = 200

Courant Number mean: 6.679081 max: 34.59944
DICPCG:  Solving for p, Initial residual = 0.02581677, Final residual = 0.0002117814, No Iterations 7
DICPCG:  Solving for p, Initial residual = 0.000211558, Final residual = 1.678778e-06, No Iterations 23
time step continuity errors : sum local = 0.4474571, global = 2.032879e-18, cumulative = -1.564473e-15
DICPCG:  Solving for p, Initial residual = 1.678772e-06, Final residual = 7.697932e-07, No Iterations 7
DICPCG:  Solving for p, Initial residual = 7.697933e-07, Final residual = 7.697933e-07, No Iterations 0
time step continuity errors : sum local = 0.4474562, global = -4.912791e-18, cumulative = -1.569386e-15
DICPCG:  Solving for p, Initial residual = 7.697933e-07, Final residual = 7.697933e-07, No Iterations 0
DICPCG:  Solving for p, Initial residual = 7.697933e-07, Final residual = 7.697933e-07, No Iterations 0
time step continuity errors : sum local = 0.4474562, global = -4.912791e-18, cumulative = -1.574299e-15
smoothSolver:  Solving for T, Initial residual = 0.01735684, Final residual = 0.0007397912, No Iterations 1
ExecutionTime = 1.19 s  ClockTime = 1 s

End

